3566
  MOE2018           3D

104110  0  0  1  0  0  0  0  0999 V2000
   25.5750   -5.7980    0.0840 O   0  0  0  0  0  0  0  0  0  0  0  0
   26.1470   -6.8370    0.2900 C   0  0  0  0  0  0  0  0  0  0  0  0
   26.7280   -7.2170    1.6400 C   0  0  0  0  0  0  0  0  0  0  0  0
   26.5080   -8.7340    1.8420 C   0  0  0  0  0  0  0  0  0  0  0  0
   27.2710   -9.4590    0.7020 C   0  0  1  0  0  0  0  0  0  0  0  0
   26.9880  -10.8980    0.7990 N   0  0  0  0  0  0  0  0  0  0  0  0
   27.9650  -11.8590    0.9640 C   0  0  0  0  0  0  0  0  0  0  0  0
   29.1300  -11.5720    1.1900 O   0  0  0  0  0  0  0  0  0  0  0  0
   27.3450  -13.1560    0.8320 C   0  0  0  0  0  0  0  0  0  0  0  0
   27.8810  -14.4430    0.9010 C   0  0  0  0  0  0  0  0  0  0  0  0
   27.0300  -15.5370    0.7280 C   0  0  0  0  0  0  0  0  0  0  0  0
   25.6650  -15.3440    0.4920 C   0  0  0  0  0  0  0  0  0  0  0  0
   25.1470  -14.0450    0.4300 C   0  0  0  0  0  0  0  0  0  0  0  0
   23.8180  -13.8070    0.2160 O   0  0  0  0  0  0  0  0  0  0  0  0
   22.8040  -14.7860   -0.0840 C   0  0  0  0  0  0  0  0  0  0  0  0
   21.5020  -13.9820   -0.1380 C   0  0  0  0  0  0  0  0  0  0  0  0
   20.3070  -14.8690   -0.5150 C   0  0  0  0  0  0  0  0  0  0  0  0
   19.0090  -14.0450   -0.4870 C   0  0  0  0  0  0  0  0  0  0  0  0
   17.8710  -14.9770   -0.9530 C   0  0  0  0  0  0  0  0  0  0  0  0
   16.6350  -14.2090   -0.8650 N   0  0  0  0  0  0  0  0  0  0  0  0
   15.7530  -14.2260    0.1350 C   0  0  0  0  0  0  0  0  0  0  0  0
   14.7880  -13.3640   -0.2310 C   0  0  0  0  0  0  0  0  0  0  0  0
   13.5390  -13.0270    0.5530 C   0  0  0  0  0  0  0  0  0  0  0  0
   12.3530  -13.4790   -0.3180 C   0  0  0  0  0  0  0  0  0  0  0  0
   11.0040  -13.2730    0.3890 C   0  0  0  0  0  0  0  0  0  0  0  0
    9.9320  -13.6920   -0.6310 C   0  0  0  0  0  0  0  0  0  0  0  0
    8.6440  -13.6150    0.0820 N   0  3  0  0  0  0  0  0  0  0  0  0
    7.6960  -14.5050   -0.6250 C   0  0  0  0  0  0  0  0  0  0  0  0
    6.4450  -14.5710    0.2620 C   0  0  0  0  0  0  0  0  0  0  0  0
    5.8810  -13.1500    0.3280 C   0  0  0  0  0  0  0  0  0  0  0  0
    4.7560  -13.1890    1.2370 N   0  0  0  0  0  0  0  0  0  0  0  0
    3.6500  -12.3900    1.1250 C   0  0  0  0  0  0  0  0  0  0  0  0
    3.5980  -11.6290    0.1540 O   0  0  0  0  0  0  0  0  0  0  0  0
    2.6330  -12.5020    2.1680 C   0  0  0  0  0  0  0  0  0  0  0  0
    1.4290  -11.7890    2.2130 C   0  0  0  0  0  0  0  0  0  0  0  0
    1.0140  -10.8320    1.2290 N   0  0  0  0  0  0  0  0  0  0  0  0
   -0.1370  -10.0740    1.2080 C   0  0  0  0  0  0  0  0  0  0  0  0
   -0.9510  -10.1880    2.1180 O   0  0  0  0  0  0  0  0  0  0  0  0
   -0.3260   -9.1730    0.0930 C   0  0  0  0  0  0  0  0  0  0  0  0
   -1.3030   -9.4380   -0.8830 C   0  0  0  0  0  0  0  0  0  0  0  0
   -2.2700  -10.8810   -0.8230 Cl  0  0  0  0  0  0  0  0  0  0  0  0
   -1.5100   -8.5520   -1.9430 C   0  0  0  0  0  0  0  0  0  0  0  0
   -0.7390   -7.4000   -2.0480 C   0  0  0  0  0  0  0  0  0  0  0  0
    0.2410   -7.1260   -1.0990 C   0  0  0  0  0  0  0  0  0  0  0  0
    0.4490   -8.0060   -0.0350 C   0  0  0  0  0  0  0  0  0  0  0  0
    1.6870   -7.6150    1.1200 Cl  0  0  0  0  0  0  0  0  0  0  0  0
    0.7630  -12.1660    3.3230 C   0  0  0  0  0  0  0  0  0  0  0  0
    1.5620  -13.0830    3.9200 N   0  0  0  0  0  0  0  0  0  0  0  0
    2.7130  -13.3070    3.2340 N   0  0  0  0  0  0  0  0  0  0  0  0
    6.9070  -12.1810    0.9250 C   0  0  0  0  0  0  0  0  0  0  0  0
    8.1380  -12.2210    0.0100 C   0  0  0  0  0  0  0  0  0  0  0  0
   15.0930  -12.8310   -1.4320 N   0  0  0  0  0  0  0  0  0  0  0  0
   16.2300  -13.3580   -1.8170 N   0  0  0  0  0  0  0  0  0  0  0  0
   25.9990  -12.9510    0.5960 C   0  0  0  0  0  0  0  0  0  0  0  0
   25.7710  -11.5270    0.5700 C   0  0  0  0  0  0  0  0  0  0  0  0
   24.7420  -10.8890    0.3970 O   0  0  0  0  0  0  0  0  0  0  0  0
   26.8160   -8.9260   -0.6670 C   0  0  0  0  0  0  0  0  0  0  0  0
   26.9380   -9.5290   -1.7100 O   0  0  0  0  0  0  0  0  0  0  0  0
   26.2860   -7.6760   -0.7680 N   0  0  0  0  0  0  0  0  0  0  0  0
   27.7940   -6.9910    1.6610 H   0  0  0  0  0  0  0  0  0  0  0  0
   26.2230   -6.6610    2.4300 H   0  0  0  0  0  0  0  0  0  0  0  0
   25.4450   -8.9680    1.7890 H   0  0  0  0  0  0  0  0  0  0  0  0
   26.9000   -9.0430    2.8110 H   0  0  0  0  0  0  0  0  0  0  0  0
   28.3420   -9.2790    0.8000 H   0  0  0  0  0  0  0  0  0  0  0  0
   28.9350  -14.5900    1.0850 H   0  0  0  0  0  0  0  0  0  0  0  0
   27.4290  -16.5390    0.7770 H   0  0  0  0  0  0  0  0  0  0  0  0
   25.0130  -16.1940    0.3580 H   0  0  0  0  0  0  0  0  0  0  0  0
   23.0020  -15.2650   -1.0430 H   0  0  0  0  0  0  0  0  0  0  0  0
   22.7570  -15.5440    0.6980 H   0  0  0  0  0  0  0  0  0  0  0  0
   21.3190  -13.5390    0.8410 H   0  0  0  0  0  0  0  0  0  0  0  0
   21.6050  -13.1920   -0.8810 H   0  0  0  0  0  0  0  0  0  0  0  0
   20.4580  -15.2710   -1.5170 H   0  0  0  0  0  0  0  0  0  0  0  0
   20.2280  -15.6900    0.1970 H   0  0  0  0  0  0  0  0  0  0  0  0
   19.0930  -13.1920   -1.1600 H   0  0  0  0  0  0  0  0  0  0  0  0
   18.8120  -13.6910    0.5250 H   0  0  0  0  0  0  0  0  0  0  0  0
   17.8150  -15.8530   -0.3070 H   0  0  0  0  0  0  0  0  0  0  0  0
   18.0430  -15.2940   -1.9810 H   0  0  0  0  0  0  0  0  0  0  0  0
   15.8030  -14.8070    1.0440 H   0  0  0  0  0  0  0  0  0  0  0  0
   13.5340  -13.5590    1.5040 H   0  0  0  0  0  0  0  0  0  0  0  0
   13.4860  -11.9540    0.7370 H   0  0  0  0  0  0  0  0  0  0  0  0
   12.3570  -12.9020   -1.2430 H   0  0  0  0  0  0  0  0  0  0  0  0
   12.4700  -14.5380   -0.5490 H   0  0  0  0  0  0  0  0  0  0  0  0
   10.8760  -12.2270    0.6670 H   0  0  0  0  0  0  0  0  0  0  0  0
   10.9440  -13.8960    1.2820 H   0  0  0  0  0  0  0  0  0  0  0  0
   10.1140  -14.7100   -0.9760 H   0  0  0  0  0  0  0  0  0  0  0  0
    9.9340  -13.0130   -1.4840 H   0  0  0  0  0  0  0  0  0  0  0  0
    8.7470  -13.8880    1.0490 H   0  0  0  0  0  0  0  0  0  0  0  0
    7.4470  -14.0940   -1.6030 H   0  0  0  0  0  0  0  0  0  0  0  0
    8.1270  -15.4980   -0.7480 H   0  0  0  0  0  0  0  0  0  0  0  0
    6.7100  -14.9170    1.2610 H   0  0  0  0  0  0  0  0  0  0  0  0
    5.7100  -15.2480   -0.1740 H   0  0  0  0  0  0  0  0  0  0  0  0
    5.6130  -12.8170   -0.6750 H   0  0  0  0  0  0  0  0  0  0  0  0
    4.7890  -13.8470    2.0020 H   0  0  0  0  0  0  0  0  0  0  0  0
    1.6450  -10.6960    0.4530 H   0  0  0  0  0  0  0  0  0  0  0  0
   -2.2700   -8.7620   -2.6810 H   0  0  0  0  0  0  0  0  0  0  0  0
   -0.9010   -6.7160   -2.8680 H   0  0  0  0  0  0  0  0  0  0  0  0
    0.8410   -6.2320   -1.1850 H   0  0  0  0  0  0  0  0  0  0  0  0
   -0.2000  -11.8130    3.6630 H   0  0  0  0  0  0  0  0  0  0  0  0
    1.3270  -13.5510    4.7840 H   0  0  0  0  0  0  0  0  0  0  0  0
    6.4960  -11.1720    0.9570 H   0  0  0  0  0  0  0  0  0  0  0  0
    7.1780  -12.4950    1.9330 H   0  0  0  0  0  0  0  0  0  0  0  0
    8.8970  -11.5220    0.3620 H   0  0  0  0  0  0  0  0  0  0  0  0
    7.8600  -11.9700   -1.0130 H   0  0  0  0  0  0  0  0  0  0  0  0
   25.9810   -7.3570   -1.6760 H   0  0  0  0  0  0  0  0  0  0  0  0
  1  2  2  0  0  0  0
  2  3  1  0  0  0  0
  2 59  1  0  0  0  0
  3  4  1  0  0  0  0
  3 60  1  0  0  0  0
  3 61  1  0  0  0  0
  4  5  1  0  0  0  0
  4 62  1  0  0  0  0
  4 63  1  0  0  0  0
  5  6  1  0  0  0  0
  5 57  1  0  0  0  0
  5 64  1  0  0  0  0
  6  7  1  0  0  0  0
  6 55  1  0  0  0  0
  7  8  2  0  0  0  0
  7  9  1  0  0  0  0
  9 10  1  0  0  0  0
  9 54  2  0  0  0  0
 10 11  2  0  0  0  0
 10 65  1  0  0  0  0
 11 12  1  0  0  0  0
 11 66  1  0  0  0  0
 12 13  2  0  0  0  0
 12 67  1  0  0  0  0
 13 14  1  0  0  0  0
 13 54  1  0  0  0  0
 14 15  1  0  0  0  0
 15 16  1  0  0  0  0
 15 68  1  0  0  0  0
 15 69  1  0  0  0  0
 16 17  1  0  0  0  0
 16 70  1  0  0  0  0
 16 71  1  0  0  0  0
 17 18  1  0  0  0  0
 17 72  1  0  0  0  0
 17 73  1  0  0  0  0
 18 19  1  0  0  0  0
 18 74  1  0  0  0  0
 18 75  1  0  0  0  0
 19 20  1  0  0  0  0
 19 76  1  0  0  0  0
 19 77  1  0  0  0  0
 20 21  1  0  0  0  0
 20 53  1  0  0  0  0
 21 22  2  0  0  0  0
 21 78  1  0  0  0  0
 22 23  1  0  0  0  0
 22 52  1  0  0  0  0
 23 24  1  0  0  0  0
 23 79  1  0  0  0  0
 23 80  1  0  0  0  0
 24 25  1  0  0  0  0
 24 81  1  0  0  0  0
 24 82  1  0  0  0  0
 25 26  1  0  0  0  0
 25 83  1  0  0  0  0
 25 84  1  0  0  0  0
 26 27  1  0  0  0  0
 26 85  1  0  0  0  0
 26 86  1  0  0  0  0
 27 28  1  0  0  0  0
 27 51  1  0  0  0  0
 27 87  1  0  0  0  0
 28 29  1  0  0  0  0
 28 88  1  0  0  0  0
 28 89  1  0  0  0  0
 29 30  1  0  0  0  0
 29 90  1  0  0  0  0
 29 91  1  0  0  0  0
 30 31  1  0  0  0  0
 30 50  1  0  0  0  0
 30 92  1  0  0  0  0
 31 32  1  0  0  0  0
 31 93  1  0  0  0  0
 32 33  2  0  0  0  0
 32 34  1  0  0  0  0
 34 35  1  0  0  0  0
 34 49  2  0  0  0  0
 35 36  1  0  0  0  0
 35 47  2  0  0  0  0
 36 37  1  0  0  0  0
 36 94  1  0  0  0  0
 37 38  2  0  0  0  0
 37 39  1  0  0  0  0
 39 40  1  0  0  0  0
 39 45  2  0  0  0  0
 40 41  1  0  0  0  0
 40 42  2  0  0  0  0
 42 43  1  0  0  0  0
 42 95  1  0  0  0  0
 43 44  2  0  0  0  0
 43 96  1  0  0  0  0
 44 45  1  0  0  0  0
 44 97  1  0  0  0  0
 45 46  1  0  0  0  0
 47 48  1  0  0  0  0
 47 98  1  0  0  0  0
 48 49  1  0  0  0  0
 48 99  1  0  0  0  0
 50 51  1  0  0  0  0
 50100  1  0  0  0  0
 50101  1  0  0  0  0
 51102  1  0  0  0  0
 51103  1  0  0  0  0
 52 53  2  0  0  0  0
 54 55  1  0  0  0  0
 55 56  2  0  0  0  0
 57 58  2  0  0  0  0
 57 59  1  0  0  0  0
 59104  1  0  0  0  0
M  CHG  1  27   1
M  END
>  <Compound ID>
3566

>  <Uniprot>
P50750

>  <Target>
CDK9

>  <E3 ligase>
CRBN

>  <IC50 (nM, Cellular activities)>
240/1290/500

>  <Assay (Cellular activities, IC50)>
Cell cytotoxicity (IC50) was determined in MV4-11 cells after 48 h treatment/Post-WO IC50 was determined after 6 h treatment and a total incubation time of 48 h/No-WO IC50 was determined after 6 h treatment and a total incubation time of 48 h

>  <Article DOI>
10.1021/acsmedchemlett.3c00082

>  <Molecular Weight>
847.76099

>  <Exact Mass>
846.27716

>  <XLogP3>
4.4099998

>  <Heavy Atom Count>
59

>  <Ring Count>
7

>  <Hydrogen Bond Acceptor Count>
12

>  <Hydrogen Bond Donor Count>
4

>  <Rotatable Bond Count>
17

>  <Topological Polar Surface Area>
213.61

>  <Molecular Formula>
C40H44Cl2N10O7

>  <InChI>
InChI=1S/C40H44Cl2N10O7/c41-27-10-7-11-28(42)34(27)37(55)45-29-22-43-48-35(29)38(56)44-24-15-19-50(20-16-24)17-4-2-8-25-23-51(49-47-25)18-3-1-5-21-59-31-12-6-9-26-33(31)40(58)52(39(26)57)30-13-14-32(53)46-36(30)54/h6-7,9-12,22-24,30H,1-5,8,13-21H2,(H,43,48)(H,44,56)(H,45,55)(H,46,53,54)

>  <InChI Key>
WQYDJYODLBQPRD-UHFFFAOYSA-N

>  <Dmax (%)>
67.5

>  <DC50 (nM)>
130

>  <Assay (DC50/Dmax)>
Degradation of CDK9 in MOLM-13 cells

$$$$
3567
  MOE2018           3D

101107  0  0  1  0  0  0  0  0999 V2000
   31.1930  -12.4090   -0.6150 O   0  0  0  0  0  0  0  0  0  0  0  0
   31.3950  -11.2220   -0.6410 C   0  0  0  0  0  0  0  0  0  0  0  0
   31.8650  -10.4810   -1.8780 C   0  0  0  0  0  0  0  0  0  0  0  0
   31.1540   -9.1080   -1.9070 C   0  0  0  0  0  0  0  0  0  0  0  0
   31.5870   -8.3450   -0.6270 C   0  0  1  0  0  0  0  0  0  0  0  0
   30.8320   -7.0860   -0.5700 N   0  0  0  0  0  0  0  0  0  0  0  0
   31.4180   -5.8370   -0.5990 C   0  0  0  0  0  0  0  0  0  0  0  0
   32.6130   -5.6830   -0.8010 O   0  0  0  0  0  0  0  0  0  0  0  0
   30.3880   -4.8520   -0.3730 C   0  0  0  0  0  0  0  0  0  0  0  0
   30.4460   -3.4590   -0.3010 C   0  0  0  0  0  0  0  0  0  0  0  0
   29.2680   -2.7470   -0.0650 C   0  0  0  0  0  0  0  0  0  0  0  0
   28.0520   -3.4200    0.0960 C   0  0  0  0  0  0  0  0  0  0  0  0
   28.0150   -4.8180    0.0200 C   0  0  0  0  0  0  0  0  0  0  0  0
   26.8510   -5.5190    0.1680 O   0  0  0  0  0  0  0  0  0  0  0  0
   25.5490   -4.9740    0.4550 C   0  0  0  0  0  0  0  0  0  0  0  0
   24.6350   -6.1990    0.5210 C   0  0  0  0  0  0  0  0  0  0  0  0
   23.1790   -5.7900    0.7960 C   0  0  0  0  0  0  0  0  0  0  0  0
   22.3510   -7.0920    0.8470 C   0  0  0  0  0  0  0  0  0  0  0  0
   20.9710   -6.6900    1.0890 N   0  0  0  0  0  0  0  0  0  0  0  0
   20.0670   -6.3380    0.1740 C   0  0  0  0  0  0  0  0  0  0  0  0
   18.9650   -6.0190    0.8740 C   0  0  0  0  0  0  0  0  0  0  0  0
   17.6410   -5.5560    0.3120 C   0  0  0  0  0  0  0  0  0  0  0  0
   16.6790   -6.7470    0.4520 C   0  0  0  0  0  0  0  0  0  0  0  0
   15.2690   -6.3860   -0.0410 C   0  0  0  0  0  0  0  0  0  0  0  0
   14.4010   -7.6330    0.1920 C   0  0  0  0  0  0  0  0  0  0  0  0
   13.0500   -7.2540   -0.2570 N   0  3  0  0  0  0  0  0  0  0  0  0
   12.3320   -6.6260    0.8790 C   0  0  0  0  0  0  0  0  0  0  0  0
   11.0330   -6.0660    0.2850 C   0  0  0  0  0  0  0  0  0  0  0  0
   10.2410   -7.2650   -0.2420 C   0  0  0  0  0  0  0  0  0  0  0  0
    9.0650   -6.7330   -0.8950 N   0  0  0  0  0  0  0  0  0  0  0  0
    7.8410   -7.3460   -0.9000 C   0  0  0  0  0  0  0  0  0  0  0  0
    7.7220   -8.3780   -0.2310 O   0  0  0  0  0  0  0  0  0  0  0  0
    6.7860   -6.7310   -1.7030 C   0  0  0  0  0  0  0  0  0  0  0  0
    5.4670   -7.1900   -1.8110 C   0  0  0  0  0  0  0  0  0  0  0  0
    4.9510   -8.3470   -1.1380 N   0  0  0  0  0  0  0  0  0  0  0  0
    3.6860   -8.8890   -1.2220 C   0  0  0  0  0  0  0  0  0  0  0  0
    2.8540   -8.3660   -1.9560 O   0  0  0  0  0  0  0  0  0  0  0  0
    3.4040  -10.0630   -0.4250 C   0  0  0  0  0  0  0  0  0  0  0  0
    2.5220   -9.9910    0.6690 C   0  0  0  0  0  0  0  0  0  0  0  0
    1.7920   -8.4860    1.1420 Cl  0  0  0  0  0  0  0  0  0  0  0  0
    2.2250  -11.1290    1.4220 C   0  0  0  0  0  0  0  0  0  0  0  0
    2.8110  -12.3490    1.1000 C   0  0  0  0  0  0  0  0  0  0  0  0
    3.6940  -12.4390    0.0290 C   0  0  0  0  0  0  0  0  0  0  0  0
    3.9900  -11.3050   -0.7290 C   0  0  0  0  0  0  0  0  0  0  0  0
    5.0980  -11.4780   -2.0580 Cl  0  0  0  0  0  0  0  0  0  0  0  0
    4.8030   -6.3590   -2.6400 C   0  0  0  0  0  0  0  0  0  0  0  0
    5.7160   -5.4290   -3.0140 N   0  0  0  0  0  0  0  0  0  0  0  0
    6.9370   -5.6330   -2.4550 N   0  0  0  0  0  0  0  0  0  0  0  0
   11.0350   -8.0280   -1.3070 C   0  0  0  0  0  0  0  0  0  0  0  0
   12.3370   -8.4930   -0.6430 C   0  0  0  0  0  0  0  0  0  0  0  0
   19.2040   -6.1790    2.1910 N   0  0  0  0  0  0  0  0  0  0  0  0
   20.4420   -6.5910    2.3160 N   0  0  0  0  0  0  0  0  0  0  0  0
   29.1940   -5.5290   -0.2150 C   0  0  0  0  0  0  0  0  0  0  0  0
   29.4700   -6.9390   -0.3440 C   0  0  0  0  0  0  0  0  0  0  0  0
   28.7190   -7.9040   -0.3000 O   0  0  0  0  0  0  0  0  0  0  0  0
   31.2970   -9.1930    0.6230 C   0  0  0  0  0  0  0  0  0  0  0  0
   31.1850   -8.7430    1.7420 O   0  0  0  0  0  0  0  0  0  0  0  0
   31.2100  -10.5480    0.5220 N   0  0  0  0  0  0  0  0  0  0  0  0
   32.9450  -10.3380   -1.8370 H   0  0  0  0  0  0  0  0  0  0  0  0
   31.6080  -11.0500   -2.7710 H   0  0  0  0  0  0  0  0  0  0  0  0
   30.0730   -9.2460   -1.9120 H   0  0  0  0  0  0  0  0  0  0  0  0
   31.4530   -8.5500   -2.7940 H   0  0  0  0  0  0  0  0  0  0  0  0
   32.6580   -8.1420   -0.6560 H   0  0  0  0  0  0  0  0  0  0  0  0
   31.3850   -2.9410   -0.4260 H   0  0  0  0  0  0  0  0  0  0  0  0
   29.2960   -1.6690   -0.0060 H   0  0  0  0  0  0  0  0  0  0  0  0
   27.1450   -2.8630    0.2780 H   0  0  0  0  0  0  0  0  0  0  0  0
   25.5530   -4.4430    1.4070 H   0  0  0  0  0  0  0  0  0  0  0  0
   25.2300   -4.2960   -0.3370 H   0  0  0  0  0  0  0  0  0  0  0  0
   24.6820   -6.7300   -0.4300 H   0  0  0  0  0  0  0  0  0  0  0  0
   24.9770   -6.8560    1.3210 H   0  0  0  0  0  0  0  0  0  0  0  0
   22.8140   -5.1440   -0.0020 H   0  0  0  0  0  0  0  0  0  0  0  0
   23.1110   -5.2640    1.7480 H   0  0  0  0  0  0  0  0  0  0  0  0
   22.7050   -7.7330    1.6550 H   0  0  0  0  0  0  0  0  0  0  0  0
   22.4280   -7.6260   -0.1000 H   0  0  0  0  0  0  0  0  0  0  0  0
   20.1930   -6.3140   -0.8980 H   0  0  0  0  0  0  0  0  0  0  0  0
   17.2690   -4.7010    0.8760 H   0  0  0  0  0  0  0  0  0  0  0  0
   17.7510   -5.2800   -0.7370 H   0  0  0  0  0  0  0  0  0  0  0  0
   17.0590   -7.5810   -0.1380 H   0  0  0  0  0  0  0  0  0  0  0  0
   16.6250   -7.0380    1.5010 H   0  0  0  0  0  0  0  0  0  0  0  0
   15.2920   -6.1350   -1.1010 H   0  0  0  0  0  0  0  0  0  0  0  0
   14.8760   -5.5410    0.5240 H   0  0  0  0  0  0  0  0  0  0  0  0
   14.3920   -7.9000    1.2490 H   0  0  0  0  0  0  0  0  0  0  0  0
   14.7760   -8.4740   -0.3920 H   0  0  0  0  0  0  0  0  0  0  0  0
   13.0970   -6.6110   -1.0340 H   0  0  0  0  0  0  0  0  0  0  0  0
   12.1110   -7.3680    1.6470 H   0  0  0  0  0  0  0  0  0  0  0  0
   12.9300   -5.8240    1.3110 H   0  0  0  0  0  0  0  0  0  0  0  0
   11.2580   -5.3770   -0.5290 H   0  0  0  0  0  0  0  0  0  0  0  0
   10.4610   -5.5460    1.0540 H   0  0  0  0  0  0  0  0  0  0  0  0
   10.0120   -7.9380    0.5840 H   0  0  0  0  0  0  0  0  0  0  0  0
    9.1530   -5.8510   -1.3790 H   0  0  0  0  0  0  0  0  0  0  0  0
    5.5960   -8.8250   -0.5250 H   0  0  0  0  0  0  0  0  0  0  0  0
    1.5400  -11.0620    2.2540 H   0  0  0  0  0  0  0  0  0  0  0  0
    2.5800  -13.2280    1.6830 H   0  0  0  0  0  0  0  0  0  0  0  0
    4.1510  -13.3870   -0.2160 H   0  0  0  0  0  0  0  0  0  0  0  0
    3.7680   -6.4210   -2.9410 H   0  0  0  0  0  0  0  0  0  0  0  0
    5.5100   -4.6650   -3.6420 H   0  0  0  0  0  0  0  0  0  0  0  0
   10.4640   -8.8880   -1.6560 H   0  0  0  0  0  0  0  0  0  0  0  0
   11.2570   -7.3730   -2.1500 H   0  0  0  0  0  0  0  0  0  0  0  0
   12.9360   -9.0740   -1.3440 H   0  0  0  0  0  0  0  0  0  0  0  0
   12.1200   -9.0980    0.2380 H   0  0  0  0  0  0  0  0  0  0  0  0
   30.9970  -11.0780    1.3550 H   0  0  0  0  0  0  0  0  0  0  0  0
  1  2  2  0  0  0  0
  2  3  1  0  0  0  0
  2 58  1  0  0  0  0
  3  4  1  0  0  0  0
  3 59  1  0  0  0  0
  3 60  1  0  0  0  0
  4  5  1  0  0  0  0
  4 61  1  0  0  0  0
  4 62  1  0  0  0  0
  5  6  1  0  0  0  0
  5 56  1  0  0  0  0
  5 63  1  0  0  0  0
  6  7  1  0  0  0  0
  6 54  1  0  0  0  0
  7  8  2  0  0  0  0
  7  9  1  0  0  0  0
  9 10  1  0  0  0  0
  9 53  2  0  0  0  0
 10 11  2  0  0  0  0
 10 64  1  0  0  0  0
 11 12  1  0  0  0  0
 11 65  1  0  0  0  0
 12 13  2  0  0  0  0
 12 66  1  0  0  0  0
 13 14  1  0  0  0  0
 13 53  1  0  0  0  0
 14 15  1  0  0  0  0
 15 16  1  0  0  0  0
 15 67  1  0  0  0  0
 15 68  1  0  0  0  0
 16 17  1  0  0  0  0
 16 69  1  0  0  0  0
 16 70  1  0  0  0  0
 17 18  1  0  0  0  0
 17 71  1  0  0  0  0
 17 72  1  0  0  0  0
 18 19  1  0  0  0  0
 18 73  1  0  0  0  0
 18 74  1  0  0  0  0
 19 20  1  0  0  0  0
 19 52  1  0  0  0  0
 20 21  2  0  0  0  0
 20 75  1  0  0  0  0
 21 22  1  0  0  0  0
 21 51  1  0  0  0  0
 22 23  1  0  0  0  0
 22 76  1  0  0  0  0
 22 77  1  0  0  0  0
 23 24  1  0  0  0  0
 23 78  1  0  0  0  0
 23 79  1  0  0  0  0
 24 25  1  0  0  0  0
 24 80  1  0  0  0  0
 24 81  1  0  0  0  0
 25 26  1  0  0  0  0
 25 82  1  0  0  0  0
 25 83  1  0  0  0  0
 26 27  1  0  0  0  0
 26 50  1  0  0  0  0
 26 84  1  0  0  0  0
 27 28  1  0  0  0  0
 27 85  1  0  0  0  0
 27 86  1  0  0  0  0
 28 29  1  0  0  0  0
 28 87  1  0  0  0  0
 28 88  1  0  0  0  0
 29 30  1  0  0  0  0
 29 49  1  0  0  0  0
 29 89  1  0  0  0  0
 30 31  1  0  0  0  0
 30 90  1  0  0  0  0
 31 32  2  0  0  0  0
 31 33  1  0  0  0  0
 33 34  1  0  0  0  0
 33 48  2  0  0  0  0
 34 35  1  0  0  0  0
 34 46  2  0  0  0  0
 35 36  1  0  0  0  0
 35 91  1  0  0  0  0
 36 37  2  0  0  0  0
 36 38  1  0  0  0  0
 38 39  1  0  0  0  0
 38 44  2  0  0  0  0
 39 40  1  0  0  0  0
 39 41  2  0  0  0  0
 41 42  1  0  0  0  0
 41 92  1  0  0  0  0
 42 43  2  0  0  0  0
 42 93  1  0  0  0  0
 43 44  1  0  0  0  0
 43 94  1  0  0  0  0
 44 45  1  0  0  0  0
 46 47  1  0  0  0  0
 46 95  1  0  0  0  0
 47 48  1  0  0  0  0
 47 96  1  0  0  0  0
 49 50  1  0  0  0  0
 49 97  1  0  0  0  0
 49 98  1  0  0  0  0
 50 99  1  0  0  0  0
 50100  1  0  0  0  0
 51 52  2  0  0  0  0
 53 54  1  0  0  0  0
 54 55  2  0  0  0  0
 56 57  2  0  0  0  0
 56 58  1  0  0  0  0
 58101  1  0  0  0  0
M  CHG  1  26   1
M  END
>  <Compound ID>
3567

>  <Uniprot>
P50750

>  <Target>
CDK9

>  <E3 ligase>
CRBN

>  <IC50 (nM, Cellular activities)>
190/720/500

>  <Assay (Cellular activities, IC50)>
Cell cytotoxicity (IC50) was determined in MV4-11 cells after 48 h treatment/Post-WO IC50 was determined after 6 h treatment and a total incubation time of 48 h/No-WO IC50 was determined after 6 h treatment and a total incubation time of 48 h

>  <Article DOI>
10.1021/acsmedchemlett.3c00082

>  <Molecular Weight>
833.73401

>  <Exact Mass>
832.26147

>  <XLogP3>
4.0500002

>  <Heavy Atom Count>
58

>  <Ring Count>
7

>  <Hydrogen Bond Acceptor Count>
12

>  <Hydrogen Bond Donor Count>
4

>  <Rotatable Bond Count>
16

>  <Topological Polar Surface Area>
213.61

>  <Molecular Formula>
C39H42Cl2N10O7

>  <InChI>
InChI=1S/C39H42Cl2N10O7/c40-26-9-6-10-27(41)33(26)36(54)44-28-21-42-47-34(28)37(55)43-23-14-18-49(19-15-23)16-2-1-7-24-22-50(48-46-24)17-3-4-20-58-30-11-5-8-25-32(30)39(57)51(38(25)56)29-12-13-31(52)45-35(29)53/h5-6,8-11,21-23,29H,1-4,7,12-20H2,(H,42,47)(H,43,55)(H,44,54)(H,45,52,53)

>  <InChI Key>
RWZUENRHOXLKRD-UHFFFAOYSA-N

>  <Dmax (%)>
79.1

>  <DC50 (nM)>
70

>  <Assay (DC50/Dmax)>
Degradation of CDK9 in MOLM-13 cells

$$$$
3568
  MOE2018           3D

104110  0  0  1  0  0  0  0  0999 V2000
   31.3030    7.5710    0.3290 O   0  0  0  0  0  0  0  0  0  0  0  0
   30.7760    8.6220    0.5900 C   0  0  0  0  0  0  0  0  0  0  0  0
   30.8270    9.8330   -0.3220 C   0  0  0  0  0  0  0  0  0  0  0  0
   29.4540   10.5400   -0.2490 C   0  0  0  0  0  0  0  0  0  0  0  0
   29.2500   10.9860    1.2230 C   0  0  1  0  0  0  0  0  0  0  0  0
   27.9000   11.5560    1.3420 N   0  0  0  0  0  0  0  0  0  0  0  0
   27.6480   12.8670    1.6930 C   0  0  0  0  0  0  0  0  0  0  0  0
   28.5410   13.6900    1.8220 O   0  0  0  0  0  0  0  0  0  0  0  0
   26.2210   13.0250    1.8390 C   0  0  0  0  0  0  0  0  0  0  0  0
   25.4470   14.1370    2.1780 C   0  0  0  0  0  0  0  0  0  0  0  0
   24.0590   13.9990    2.2420 C   0  0  0  0  0  0  0  0  0  0  0  0
   23.4560   12.7660    1.9700 C   0  0  0  0  0  0  0  0  0  0  0  0
   24.2490   11.6630    1.6340 C   0  0  0  0  0  0  0  0  0  0  0  0
   23.7050   10.4380    1.3640 O   0  0  0  0  0  0  0  0  0  0  0  0
   22.3050   10.0960    1.3740 C   0  0  0  0  0  0  0  0  0  0  0  0
   22.2880    8.5880    1.1180 C   0  0  0  0  0  0  0  0  0  0  0  0
   20.8500    8.0490    1.0370 C   0  0  0  0  0  0  0  0  0  0  0  0
   20.9630    6.5220    0.8410 C   0  0  0  0  0  0  0  0  0  0  0  0
   19.6030    6.0130    0.7160 N   0  0  0  0  0  0  0  0  0  0  0  0
   18.9270    5.8120   -0.4150 C   0  0  0  0  0  0  0  0  0  0  0  0
   17.7300    5.3360   -0.0300 C   0  0  0  0  0  0  0  0  0  0  0  0
   16.5940    4.9280   -0.9420 C   0  0  0  0  0  0  0  0  0  0  0  0
   15.4480    5.9260   -0.7070 C   0  0  0  0  0  0  0  0  0  0  0  0
   14.2530    5.6200   -1.6210 C   0  0  0  0  0  0  0  0  0  0  0  0
   13.0870    6.5690   -1.3010 C   0  0  0  0  0  0  0  0  0  0  0  0
   11.9500    6.2060   -2.2700 C   0  0  0  0  0  0  0  0  0  0  0  0
   10.8060    7.0290   -1.8490 N   0  3  0  0  0  0  0  0  0  0  0  0
    9.5700    6.3720   -2.3180 C   0  0  0  0  0  0  0  0  0  0  0  0
    8.4340    7.0920   -1.5860 C   0  0  0  0  0  0  0  0  0  0  0  0
    8.4770    8.5690   -1.9990 C   0  0  0  0  0  0  0  0  0  0  0  0
    7.5780    9.2640   -1.1130 N   0  0  0  0  0  0  0  0  0  0  0  0
    6.2180    9.2770   -1.2340 C   0  0  0  0  0  0  0  0  0  0  0  0
    5.7600    8.7150   -2.2320 O   0  0  0  0  0  0  0  0  0  0  0  0
    5.4340    9.9320   -0.1840 C   0  0  0  0  0  0  0  0  0  0  0  0
    5.5920    9.7740    1.2070 C   0  0  0  0  0  0  0  0  0  0  0  0
    6.4590    8.9290    1.9770 N   0  0  0  0  0  0  0  0  0  0  0  0
    7.7940    9.1700    2.2170 C   0  0  0  0  0  0  0  0  0  0  0  0
    8.3770    9.9380    1.4570 O   0  0  0  0  0  0  0  0  0  0  0  0
    8.4440    8.5020    3.3330 C   0  0  0  0  0  0  0  0  0  0  0  0
    7.9420    8.6200    4.6460 C   0  0  0  0  0  0  0  0  0  0  0  0
    6.5240    9.5610    5.0080 Cl  0  0  0  0  0  0  0  0  0  0  0  0
    8.5800    7.9890    5.7160 C   0  0  0  0  0  0  0  0  0  0  0  0
    9.7310    7.2410    5.5000 C   0  0  0  0  0  0  0  0  0  0  0  0
   10.2490    7.1150    4.2160 C   0  0  0  0  0  0  0  0  0  0  0  0
    9.6130    7.7340    3.1390 C   0  0  0  0  0  0  0  0  0  0  0  0
   10.3120    7.4930    1.5620 Cl  0  0  0  0  0  0  0  0  0  0  0  0
    4.6780   10.5510    1.8230 C   0  0  0  0  0  0  0  0  0  0  0  0
    3.9980   11.1590    0.8200 N   0  0  0  0  0  0  0  0  0  0  0  0
    4.4360   10.7930   -0.4030 N   0  0  0  0  0  0  0  0  0  0  0  0
    9.8490    9.2150   -1.7700 C   0  0  0  0  0  0  0  0  0  0  0  0
   10.8920    8.3570   -2.4930 C   0  0  0  0  0  0  0  0  0  0  0  0
   17.6870    5.2630    1.3160 N   0  0  0  0  0  0  0  0  0  0  0  0
   18.8430    5.6850    1.7690 N   0  0  0  0  0  0  0  0  0  0  0  0
   25.6370   11.8020    1.5690 C   0  0  0  0  0  0  0  0  0  0  0  0
   26.6950   10.8730    1.2520 C   0  0  0  0  0  0  0  0  0  0  0  0
   26.6480    9.6950    0.9270 O   0  0  0  0  0  0  0  0  0  0  0  0
   29.4040    9.7830    2.1700 C   0  0  0  0  0  0  0  0  0  0  0  0
   28.9550    9.7380    3.2940 O   0  0  0  0  0  0  0  0  0  0  0  0
   30.1330    8.7010    1.7830 N   0  0  0  0  0  0  0  0  0  0  0  0
   31.6120   10.5130    0.0090 H   0  0  0  0  0  0  0  0  0  0  0  0
   31.0270    9.5180   -1.3460 H   0  0  0  0  0  0  0  0  0  0  0  0
   28.6620    9.8510   -0.5440 H   0  0  0  0  0  0  0  0  0  0  0  0
   29.4450   11.4080   -0.9080 H   0  0  0  0  0  0  0  0  0  0  0  0
   29.9990   11.7290    1.4980 H   0  0  0  0  0  0  0  0  0  0  0  0
   25.9140   15.0880    2.3870 H   0  0  0  0  0  0  0  0  0  0  0  0
   23.4470   14.8500    2.5030 H   0  0  0  0  0  0  0  0  0  0  0  0
   22.3820   12.6660    2.0190 H   0  0  0  0  0  0  0  0  0  0  0  0
   21.8560   10.3300    2.3400 H   0  0  0  0  0  0  0  0  0  0  0  0
   21.7710   10.6280    0.5870 H   0  0  0  0  0  0  0  0  0  0  0  0
   22.7970    8.3820    0.1770 H   0  0  0  0  0  0  0  0  0  0  0  0
   22.8100    8.0840    1.9310 H   0  0  0  0  0  0  0  0  0  0  0  0
   20.3260    8.4990    0.1930 H   0  0  0  0  0  0  0  0  0  0  0  0
   20.3120    8.2710    1.9590 H   0  0  0  0  0  0  0  0  0  0  0  0
   21.4560    6.0690    1.7010 H   0  0  0  0  0  0  0  0  0  0  0  0
   21.5310    6.3000   -0.0620 H   0  0  0  0  0  0  0  0  0  0  0  0
   19.2680    5.9930   -1.4240 H   0  0  0  0  0  0  0  0  0  0  0  0
   16.9170    4.9670   -1.9820 H   0  0  0  0  0  0  0  0  0  0  0  0
   16.2650    3.9170   -0.7010 H   0  0  0  0  0  0  0  0  0  0  0  0
   15.1270    5.8610    0.3330 H   0  0  0  0  0  0  0  0  0  0  0  0
   15.8060    6.9340   -0.9140 H   0  0  0  0  0  0  0  0  0  0  0  0
   13.9330    4.5900   -1.4640 H   0  0  0  0  0  0  0  0  0  0  0  0
   14.5510    5.7530   -2.6610 H   0  0  0  0  0  0  0  0  0  0  0  0
   13.3930    7.6050   -1.4500 H   0  0  0  0  0  0  0  0  0  0  0  0
   12.7610    6.4310   -0.2700 H   0  0  0  0  0  0  0  0  0  0  0  0
   11.7070    5.1460   -2.1940 H   0  0  0  0  0  0  0  0  0  0  0  0
   12.2330    6.4410   -3.2960 H   0  0  0  0  0  0  0  0  0  0  0  0
   10.8070    7.1320   -0.8440 H   0  0  0  0  0  0  0  0  0  0  0  0
    9.4620    6.4850   -3.3970 H   0  0  0  0  0  0  0  0  0  0  0  0
    9.5790    5.3120   -2.0620 H   0  0  0  0  0  0  0  0  0  0  0  0
    8.5720    7.0030   -0.5080 H   0  0  0  0  0  0  0  0  0  0  0  0
    7.4760    6.6550   -1.8670 H   0  0  0  0  0  0  0  0  0  0  0  0
    8.2280    8.6300   -3.0580 H   0  0  0  0  0  0  0  0  0  0  0  0
    7.9840    9.7800   -0.3450 H   0  0  0  0  0  0  0  0  0  0  0  0
    6.0590    8.0910    2.3750 H   0  0  0  0  0  0  0  0  0  0  0  0
    8.1780    8.0830    6.7140 H   0  0  0  0  0  0  0  0  0  0  0  0
   10.2240    6.7570    6.3300 H   0  0  0  0  0  0  0  0  0  0  0  0
   11.1460    6.5360    4.0520 H   0  0  0  0  0  0  0  0  0  0  0  0
    4.5220   10.6640    2.8860 H   0  0  0  0  0  0  0  0  0  0  0  0
    3.2450   11.8150    0.9720 H   0  0  0  0  0  0  0  0  0  0  0  0
    9.8550   10.2270   -2.1750 H   0  0  0  0  0  0  0  0  0  0  0  0
   10.0700    9.2490   -0.7030 H   0  0  0  0  0  0  0  0  0  0  0  0
   11.8890    8.7800   -2.3680 H   0  0  0  0  0  0  0  0  0  0  0  0
   10.6590    8.2840   -3.5550 H   0  0  0  0  0  0  0  0  0  0  0  0
   30.1990    7.9170    2.4160 H   0  0  0  0  0  0  0  0  0  0  0  0
  1  2  2  0  0  0  0
  2  3  1  0  0  0  0
  2 59  1  0  0  0  0
  3  4  1  0  0  0  0
  3 60  1  0  0  0  0
  3 61  1  0  0  0  0
  4  5  1  0  0  0  0
  4 62  1  0  0  0  0
  4 63  1  0  0  0  0
  5  6  1  0  0  0  0
  5 57  1  0  0  0  0
  5 64  1  0  0  0  0
  6  7  1  0  0  0  0
  6 55  1  0  0  0  0
  7  8  2  0  0  0  0
  7  9  1  0  0  0  0
  9 10  1  0  0  0  0
  9 54  2  0  0  0  0
 10 11  2  0  0  0  0
 10 65  1  0  0  0  0
 11 12  1  0  0  0  0
 11 66  1  0  0  0  0
 12 13  2  0  0  0  0
 12 67  1  0  0  0  0
 13 14  1  0  0  0  0
 13 54  1  0  0  0  0
 14 15  1  0  0  0  0
 15 16  1  0  0  0  0
 15 68  1  0  0  0  0
 15 69  1  0  0  0  0
 16 17  1  0  0  0  0
 16 70  1  0  0  0  0
 16 71  1  0  0  0  0
 17 18  1  0  0  0  0
 17 72  1  0  0  0  0
 17 73  1  0  0  0  0
 18 19  1  0  0  0  0
 18 74  1  0  0  0  0
 18 75  1  0  0  0  0
 19 20  1  0  0  0  0
 19 53  1  0  0  0  0
 20 21  2  0  0  0  0
 20 76  1  0  0  0  0
 21 22  1  0  0  0  0
 21 52  1  0  0  0  0
 22 23  1  0  0  0  0
 22 77  1  0  0  0  0
 22 78  1  0  0  0  0
 23 24  1  0  0  0  0
 23 79  1  0  0  0  0
 23 80  1  0  0  0  0
 24 25  1  0  0  0  0
 24 81  1  0  0  0  0
 24 82  1  0  0  0  0
 25 26  1  0  0  0  0
 25 83  1  0  0  0  0
 25 84  1  0  0  0  0
 26 27  1  0  0  0  0
 26 85  1  0  0  0  0
 26 86  1  0  0  0  0
 27 28  1  0  0  0  0
 27 51  1  0  0  0  0
 27 87  1  0  0  0  0
 28 29  1  0  0  0  0
 28 88  1  0  0  0  0
 28 89  1  0  0  0  0
 29 30  1  0  0  0  0
 29 90  1  0  0  0  0
 29 91  1  0  0  0  0
 30 31  1  0  0  0  0
 30 50  1  0  0  0  0
 30 92  1  0  0  0  0
 31 32  1  0  0  0  0
 31 93  1  0  0  0  0
 32 33  2  0  0  0  0
 32 34  1  0  0  0  0
 34 35  1  0  0  0  0
 34 49  2  0  0  0  0
 35 36  1  0  0  0  0
 35 47  2  0  0  0  0
 36 37  1  0  0  0  0
 36 94  1  0  0  0  0
 37 38  2  0  0  0  0
 37 39  1  0  0  0  0
 39 40  1  0  0  0  0
 39 45  2  0  0  0  0
 40 41  1  0  0  0  0
 40 42  2  0  0  0  0
 42 43  1  0  0  0  0
 42 95  1  0  0  0  0
 43 44  2  0  0  0  0
 43 96  1  0  0  0  0
 44 45  1  0  0  0  0
 44 97  1  0  0  0  0
 45 46  1  0  0  0  0
 47 48  1  0  0  0  0
 47 98  1  0  0  0  0
 48 49  1  0  0  0  0
 48 99  1  0  0  0  0
 50 51  1  0  0  0  0
 50100  1  0  0  0  0
 50101  1  0  0  0  0
 51102  1  0  0  0  0
 51103  1  0  0  0  0
 52 53  2  0  0  0  0
 54 55  1  0  0  0  0
 55 56  2  0  0  0  0
 57 58  2  0  0  0  0
 57 59  1  0  0  0  0
 59104  1  0  0  0  0
M  CHG  1  27   1
M  END
>  <Compound ID>
3568

>  <Uniprot>
P50750

>  <Target>
CDK9

>  <E3 ligase>
CRBN

>  <IC50 (nM, Cellular activities)>
190/690/400

>  <Assay (Cellular activities, IC50)>
Cell cytotoxicity (IC50) was determined in MV4-11 cells after 48 h treatment/Post-WO IC50 was determined after 6 h treatment and a total incubation time of 48 h/No-WO IC50 was determined after 6 h treatment and a total incubation time of 48 h

>  <Article DOI>
10.1021/acsmedchemlett.3c00082

>  <Molecular Weight>
847.76099

>  <Exact Mass>
846.27716

>  <XLogP3>
4.4099998

>  <Heavy Atom Count>
59

>  <Ring Count>
7

>  <Hydrogen Bond Acceptor Count>
12

>  <Hydrogen Bond Donor Count>
4

>  <Rotatable Bond Count>
17

>  <Topological Polar Surface Area>
213.61

>  <Molecular Formula>
C40H44Cl2N10O7

>  <InChI>
InChI=1S/C40H44Cl2N10O7/c41-27-10-7-11-28(42)34(27)37(55)45-29-22-43-48-35(29)38(56)44-24-15-19-50(20-16-24)17-3-1-2-8-25-23-51(49-47-25)18-4-5-21-59-31-12-6-9-26-33(31)40(58)52(39(26)57)30-13-14-32(53)46-36(30)54/h6-7,9-12,22-24,30H,1-5,8,13-21H2,(H,43,48)(H,44,56)(H,45,55)(H,46,53,54)

>  <InChI Key>
IFGRJEDDLDJVFO-UHFFFAOYSA-N

>  <Dmax (%)>
58.6

>  <DC50 (nM)>
400

>  <Assay (DC50/Dmax)>
Degradation of CDK9 in MOLM-13 cells

$$$$
3569
  MOE2018           3D

107113  0  0  1  0  0  0  0  0999 V2000
   28.0970   18.8770    0.1570 O   0  0  0  0  0  0  0  0  0  0  0  0
   28.5000   17.7840   -0.1470 C   0  0  0  0  0  0  0  0  0  0  0  0
   29.4220   16.9580    0.7310 C   0  0  0  0  0  0  0  0  0  0  0  0
   28.9960   15.4770    0.6050 C   0  0  0  0  0  0  0  0  0  0  0  0
   29.1730   15.0780   -0.8840 C   0  0  1  0  0  0  0  0  0  0  0  0
   28.6630   13.7100   -1.0550 N   0  0  0  0  0  0  0  0  0  0  0  0
   29.4380   12.6480   -1.4740 C   0  0  0  0  0  0  0  0  0  0  0  0
   30.6470   12.7410   -1.6160 O   0  0  0  0  0  0  0  0  0  0  0  0
   28.5720   11.5110   -1.6720 C   0  0  0  0  0  0  0  0  0  0  0  0
   28.8460   10.2080   -2.0910 C   0  0  0  0  0  0  0  0  0  0  0  0
   27.7930    9.2970   -2.1960 C   0  0  0  0  0  0  0  0  0  0  0  0
   26.4850    9.6870   -1.8840 C   0  0  0  0  0  0  0  0  0  0  0  0
   26.2320   10.9980   -1.4640 C   0  0  0  0  0  0  0  0  0  0  0  0
   24.9720   11.4210   -1.1430 O   0  0  0  0  0  0  0  0  0  0  0  0
   23.7550   10.6550   -1.2450 C   0  0  0  0  0  0  0  0  0  0  0  0
   22.6680   11.5950   -0.7220 C   0  0  0  0  0  0  0  0  0  0  0  0
   21.2810   10.9380   -0.7710 C   0  0  0  0  0  0  0  0  0  0  0  0
   20.2260   11.8920   -0.1970 C   0  0  0  0  0  0  0  0  0  0  0  0
   18.8300   11.2560   -0.2370 C   0  0  0  0  0  0  0  0  0  0  0  0
   17.7980   12.1990    0.3950 C   0  0  0  0  0  0  0  0  0  0  0  0
   16.3980   11.5670    0.3580 C   0  0  0  0  0  0  0  0  0  0  0  0
   15.4480   12.5480    1.0770 C   0  0  0  0  0  0  0  0  0  0  0  0
   14.1200   11.9440    1.0500 N   0  0  0  0  0  0  0  0  0  0  0  0
   13.1350   12.2010    0.1870 C   0  0  0  0  0  0  0  0  0  0  0  0
   12.1220   11.4000    0.5620 C   0  0  0  0  0  0  0  0  0  0  0  0
   10.7600   11.2970   -0.0770 C   0  0  0  0  0  0  0  0  0  0  0  0
    9.7840   11.2480    1.1130 C   0  0  0  0  0  0  0  0  0  0  0  0
    8.4020   11.1530    0.5810 N   0  3  0  0  0  0  0  0  0  0  0  0
    7.4900   11.5490    1.6770 C   0  0  0  0  0  0  0  0  0  0  0  0
    6.1010   11.6520    1.0390 C   0  0  0  0  0  0  0  0  0  0  0  0
    5.7390   10.2550    0.5350 C   0  0  0  0  0  0  0  0  0  0  0  0
    4.4870   10.3880   -0.1710 N   0  0  0  0  0  0  0  0  0  0  0  0
    3.6830    9.3160   -0.4500 C   0  0  0  0  0  0  0  0  0  0  0  0
    3.9090    8.2990    0.2110 O   0  0  0  0  0  0  0  0  0  0  0  0
    2.6810    9.4310   -1.5180 C   0  0  0  0  0  0  0  0  0  0  0  0
    1.9400   10.5710   -1.8860 C   0  0  0  0  0  0  0  0  0  0  0  0
    1.8790   11.8910   -1.3380 N   0  0  0  0  0  0  0  0  0  0  0  0
    2.8130   12.8760   -1.5580 C   0  0  0  0  0  0  0  0  0  0  0  0
    3.9510   12.5330   -1.8710 O   0  0  0  0  0  0  0  0  0  0  0  0
    2.4040   14.2580   -1.4010 C   0  0  0  0  0  0  0  0  0  0  0  0
    2.9350   15.0580   -0.3720 C   0  0  0  0  0  0  0  0  0  0  0  0
    4.0570   14.4120    0.7860 Cl  0  0  0  0  0  0  0  0  0  0  0  0
    2.5590   16.3960   -0.2400 C   0  0  0  0  0  0  0  0  0  0  0  0
    1.6440   16.9520   -1.1270 C   0  0  0  0  0  0  0  0  0  0  0  0
    1.1020   16.1790   -2.1470 C   0  0  0  0  0  0  0  0  0  0  0  0
    1.4770   14.8410   -2.2850 C   0  0  0  0  0  0  0  0  0  0  0  0
    0.7660   13.9260   -3.5810 Cl  0  0  0  0  0  0  0  0  0  0  0  0
    1.1390   10.2350   -2.9180 C   0  0  0  0  0  0  0  0  0  0  0  0
    1.4040    8.9290   -3.1620 N   0  0  0  0  0  0  0  0  0  0  0  0
    2.3320    8.4230   -2.3240 N   0  0  0  0  0  0  0  0  0  0  0  0
    6.7690    9.7560   -0.4840 C   0  0  0  0  0  0  0  0  0  0  0  0
    8.1230    9.7370    0.2310 C   0  0  0  0  0  0  0  0  0  0  0  0
   12.4960   10.6670    1.6290 N   0  0  0  0  0  0  0  0  0  0  0  0
   13.7230   11.0090    1.9260 N   0  0  0  0  0  0  0  0  0  0  0  0
   27.2860   11.9090   -1.3620 C   0  0  0  0  0  0  0  0  0  0  0  0
   27.3400   13.2960   -0.9710 C   0  0  0  0  0  0  0  0  0  0  0  0
   26.4550   14.0550   -0.6000 O   0  0  0  0  0  0  0  0  0  0  0  0
   28.3980   16.0490   -1.7920 C   0  0  0  0  0  0  0  0  0  0  0  0
   28.0530   15.7950   -2.9250 O   0  0  0  0  0  0  0  0  0  0  0  0
   28.1110   17.3060   -1.3570 N   0  0  0  0  0  0  0  0  0  0  0  0
   30.4540   17.0760    0.3990 H   0  0  0  0  0  0  0  0  0  0  0  0
   29.3340   17.2820    1.7680 H   0  0  0  0  0  0  0  0  0  0  0  0
   27.9540   15.3610    0.9020 H   0  0  0  0  0  0  0  0  0  0  0  0
   29.6260   14.8510    1.2370 H   0  0  0  0  0  0  0  0  0  0  0  0
   30.2260   15.1240   -1.1600 H   0  0  0  0  0  0  0  0  0  0  0  0
   29.8560    9.9090   -2.3300 H   0  0  0  0  0  0  0  0  0  0  0  0
   27.9890    8.2850   -2.5200 H   0  0  0  0  0  0  0  0  0  0  0  0
   25.6740    8.9790   -1.9670 H   0  0  0  0  0  0  0  0  0  0  0  0
   23.5590   10.3780   -2.2810 H   0  0  0  0  0  0  0  0  0  0  0  0
   23.8140    9.7550   -0.6330 H   0  0  0  0  0  0  0  0  0  0  0  0
   22.8970   11.8610    0.3100 H   0  0  0  0  0  0  0  0  0  0  0  0
   22.6540   12.4960   -1.3350 H   0  0  0  0  0  0  0  0  0  0  0  0
   21.0300   10.7030   -1.8050 H   0  0  0  0  0  0  0  0  0  0  0  0
   21.2960   10.0200   -0.1830 H   0  0  0  0  0  0  0  0  0  0  0  0
   20.4820   12.1260    0.8360 H   0  0  0  0  0  0  0  0  0  0  0  0
   20.2170   12.8090   -0.7860 H   0  0  0  0  0  0  0  0  0  0  0  0
   18.8460   10.3170    0.3170 H   0  0  0  0  0  0  0  0  0  0  0  0
   18.5530   11.0620   -1.2730 H   0  0  0  0  0  0  0  0  0  0  0  0
   17.7830   13.1370   -0.1590 H   0  0  0  0  0  0  0  0  0  0  0  0
   18.0770   12.3930    1.4310 H   0  0  0  0  0  0  0  0  0  0  0  0
   16.4060   10.6060    0.8730 H   0  0  0  0  0  0  0  0  0  0  0  0
   16.0780   11.4230   -0.6740 H   0  0  0  0  0  0  0  0  0  0  0  0
   15.4350   13.5060    0.5580 H   0  0  0  0  0  0  0  0  0  0  0  0
   15.7720   12.6970    2.1070 H   0  0  0  0  0  0  0  0  0  0  0  0
   13.1490   12.9010   -0.6350 H   0  0  0  0  0  0  0  0  0  0  0  0
   10.5610   12.1660   -0.7040 H   0  0  0  0  0  0  0  0  0  0  0  0
   10.6830   10.3900   -0.6770 H   0  0  0  0  0  0  0  0  0  0  0  0
    9.8870   12.1530    1.7110 H   0  0  0  0  0  0  0  0  0  0  0  0
   10.0010   10.3770    1.7320 H   0  0  0  0  0  0  0  0  0  0  0  0
    8.2820   11.7390   -0.2330 H   0  0  0  0  0  0  0  0  0  0  0  0
    7.4920   10.7960    2.4650 H   0  0  0  0  0  0  0  0  0  0  0  0
    7.7900   12.5110    2.0930 H   0  0  0  0  0  0  0  0  0  0  0  0
    6.1220   12.3570    0.2080 H   0  0  0  0  0  0  0  0  0  0  0  0
    5.3720   11.9840    1.7790 H   0  0  0  0  0  0  0  0  0  0  0  0
    5.6970    9.5620    1.3750 H   0  0  0  0  0  0  0  0  0  0  0  0
    4.1930   11.3070   -0.4700 H   0  0  0  0  0  0  0  0  0  0  0  0
    1.0920   12.1160   -0.7460 H   0  0  0  0  0  0  0  0  0  0  0  0
    2.9790   16.9990    0.5510 H   0  0  0  0  0  0  0  0  0  0  0  0
    1.3540   17.9870   -1.0230 H   0  0  0  0  0  0  0  0  0  0  0  0
    0.3900   16.6130   -2.8330 H   0  0  0  0  0  0  0  0  0  0  0  0
    0.4370   10.8700   -3.4380 H   0  0  0  0  0  0  0  0  0  0  0  0
    0.9560    8.3930   -3.8910 H   0  0  0  0  0  0  0  0  0  0  0  0
    6.5080    8.7530   -0.8210 H   0  0  0  0  0  0  0  0  0  0  0  0
    6.8060   10.4290   -1.3410 H   0  0  0  0  0  0  0  0  0  0  0  0
    8.8980    9.3470   -0.4290 H   0  0  0  0  0  0  0  0  0  0  0  0
    8.0710    9.1250    1.1310 H   0  0  0  0  0  0  0  0  0  0  0  0
   27.5820   17.9140   -1.9650 H   0  0  0  0  0  0  0  0  0  0  0  0
  1  2  2  0  0  0  0
  2  3  1  0  0  0  0
  2 60  1  0  0  0  0
  3  4  1  0  0  0  0
  3 61  1  0  0  0  0
  3 62  1  0  0  0  0
  4  5  1  0  0  0  0
  4 63  1  0  0  0  0
  4 64  1  0  0  0  0
  5  6  1  0  0  0  0
  5 58  1  0  0  0  0
  5 65  1  0  0  0  0
  6  7  1  0  0  0  0
  6 56  1  0  0  0  0
  7  8  2  0  0  0  0
  7  9  1  0  0  0  0
  9 10  1  0  0  0  0
  9 55  2  0  0  0  0
 10 11  2  0  0  0  0
 10 66  1  0  0  0  0
 11 12  1  0  0  0  0
 11 67  1  0  0  0  0
 12 13  2  0  0  0  0
 12 68  1  0  0  0  0
 13 14  1  0  0  0  0
 13 55  1  0  0  0  0
 14 15  1  0  0  0  0
 15 16  1  0  0  0  0
 15 69  1  0  0  0  0
 15 70  1  0  0  0  0
 16 17  1  0  0  0  0
 16 71  1  0  0  0  0
 16 72  1  0  0  0  0
 17 18  1  0  0  0  0
 17 73  1  0  0  0  0
 17 74  1  0  0  0  0
 18 19  1  0  0  0  0
 18 75  1  0  0  0  0
 18 76  1  0  0  0  0
 19 20  1  0  0  0  0
 19 77  1  0  0  0  0
 19 78  1  0  0  0  0
 20 21  1  0  0  0  0
 20 79  1  0  0  0  0
 20 80  1  0  0  0  0
 21 22  1  0  0  0  0
 21 81  1  0  0  0  0
 21 82  1  0  0  0  0
 22 23  1  0  0  0  0
 22 83  1  0  0  0  0
 22 84  1  0  0  0  0
 23 24  1  0  0  0  0
 23 54  1  0  0  0  0
 24 25  2  0  0  0  0
 24 85  1  0  0  0  0
 25 26  1  0  0  0  0
 25 53  1  0  0  0  0
 26 27  1  0  0  0  0
 26 86  1  0  0  0  0
 26 87  1  0  0  0  0
 27 28  1  0  0  0  0
 27 88  1  0  0  0  0
 27 89  1  0  0  0  0
 28 29  1  0  0  0  0
 28 52  1  0  0  0  0
 28 90  1  0  0  0  0
 29 30  1  0  0  0  0
 29 91  1  0  0  0  0
 29 92  1  0  0  0  0
 30 31  1  0  0  0  0
 30 93  1  0  0  0  0
 30 94  1  0  0  0  0
 31 32  1  0  0  0  0
 31 51  1  0  0  0  0
 31 95  1  0  0  0  0
 32 33  1  0  0  0  0
 32 96  1  0  0  0  0
 33 34  2  0  0  0  0
 33 35  1  0  0  0  0
 35 36  1  0  0  0  0
 35 50  2  0  0  0  0
 36 37  1  0  0  0  0
 36 48  2  0  0  0  0
 37 38  1  0  0  0  0
 37 97  1  0  0  0  0
 38 39  2  0  0  0  0
 38 40  1  0  0  0  0
 40 41  1  0  0  0  0
 40 46  2  0  0  0  0
 41 42  1  0  0  0  0
 41 43  2  0  0  0  0
 43 44  1  0  0  0  0
 43 98  1  0  0  0  0
 44 45  2  0  0  0  0
 44 99  1  0  0  0  0
 45 46  1  0  0  0  0
 45100  1  0  0  0  0
 46 47  1  0  0  0  0
 48 49  1  0  0  0  0
 48101  1  0  0  0  0
 49 50  1  0  0  0  0
 49102  1  0  0  0  0
 51 52  1  0  0  0  0
 51103  1  0  0  0  0
 51104  1  0  0  0  0
 52105  1  0  0  0  0
 52106  1  0  0  0  0
 53 54  2  0  0  0  0
 55 56  1  0  0  0  0
 56 57  2  0  0  0  0
 58 59  2  0  0  0  0
 58 60  1  0  0  0  0
 60107  1  0  0  0  0
M  CHG  1  28   1
M  END
>  <Compound ID>
3569

>  <Uniprot>
P50750

>  <Target>
CDK9

>  <E3 ligase>
CRBN

>  <IC50 (nM, Cellular activities)>
50/250/100

>  <Assay (Cellular activities, IC50)>
Cell cytotoxicity (IC50) was determined in MV4-11 cells after 48 h treatment/Post-WO IC50 was determined after 6 h treatment and a total incubation time of 48 h/No-WO IC50 was determined after 6 h treatment and a total incubation time of 48 h

>  <Article DOI>
10.1021/acsmedchemlett.3c00082

>  <Molecular Weight>
861.78802

>  <Exact Mass>
860.29279

>  <XLogP3>
5.1300001

>  <Heavy Atom Count>
60

>  <Ring Count>
7

>  <Hydrogen Bond Acceptor Count>
12

>  <Hydrogen Bond Donor Count>
4

>  <Rotatable Bond Count>
18

>  <Topological Polar Surface Area>
213.61

>  <Molecular Formula>
C41H46Cl2N10O7

>  <InChI>
InChI=1S/C41H46Cl2N10O7/c42-28-10-8-11-29(43)35(28)38(56)46-30-23-44-49-36(30)39(57)45-25-15-19-51(20-16-25)21-17-26-24-52(50-48-26)18-5-3-1-2-4-6-22-60-32-12-7-9-27-34(32)41(59)53(40(27)58)31-13-14-33(54)47-37(31)55/h7-12,23-25,31H,1-6,13-22H2,(H,44,49)(H,45,57)(H,46,56)(H,47,54,55)

>  <InChI Key>
KQYIIOGMBKKCCZ-UHFFFAOYSA-N

>  <Dmax (%)>
88.3

>  <DC50 (nM)>
60

>  <Assay (DC50/Dmax)>
Degradation of CDK9 in MOLM-13 cells

$$$$
3570
  MOE2018           3D

107113  0  0  1  0  0  0  0  0999 V2000
   20.4960   21.9710    1.3130 O   0  0  0  0  0  0  0  0  0  0  0  0
   21.1580   21.0580    0.8890 C   0  0  0  0  0  0  0  0  0  0  0  0
   22.0980   20.2360    1.7500 C   0  0  0  0  0  0  0  0  0  0  0  0
   22.0190   18.7670    1.2740 C   0  0  0  0  0  0  0  0  0  0  0  0
   22.4840   18.7440   -0.2060 C   0  0  1  0  0  0  0  0  0  0  0  0
   22.3080   17.3770   -0.7210 N   0  0  0  0  0  0  0  0  0  0  0  0
   23.3420   16.6010   -1.2050 C   0  0  0  0  0  0  0  0  0  0  0  0
   24.5100   16.9450   -1.1170 O   0  0  0  0  0  0  0  0  0  0  0  0
   22.7760   15.4010   -1.7730 C   0  0  0  0  0  0  0  0  0  0  0  0
   23.3760   14.3040   -2.3930 C   0  0  0  0  0  0  0  0  0  0  0  0
   22.5660   13.2660   -2.8570 C   0  0  0  0  0  0  0  0  0  0  0  0
   21.1770   13.3250   -2.7000 C   0  0  0  0  0  0  0  0  0  0  0  0
   20.5950   14.4330   -2.0730 C   0  0  0  0  0  0  0  0  0  0  0  0
   19.2450   14.5310   -1.8900 O   0  0  0  0  0  0  0  0  0  0  0  0
   18.2430   13.5940   -2.3300 C   0  0  0  0  0  0  0  0  0  0  0  0
   16.9290   14.1670   -1.7940 C   0  0  0  0  0  0  0  0  0  0  0  0
   15.7290   13.2880   -2.1730 C   0  0  0  0  0  0  0  0  0  0  0  0
   14.4450   13.8850   -1.5770 C   0  0  0  0  0  0  0  0  0  0  0  0
   13.2780   12.9620   -1.9870 C   0  0  0  0  0  0  0  0  0  0  0  0
   12.0770   13.5340   -1.3920 N   0  0  0  0  0  0  0  0  0  0  0  0
   11.6060   13.3090   -0.1660 C   0  0  0  0  0  0  0  0  0  0  0  0
   10.5050   14.0740   -0.0660 C   0  0  0  0  0  0  0  0  0  0  0  0
    9.5920   14.1840    1.1340 C   0  0  0  0  0  0  0  0  0  0  0  0
    8.3310   13.3730    0.7940 C   0  0  0  0  0  0  0  0  0  0  0  0
    7.3200   13.3940    1.9500 C   0  0  0  0  0  0  0  0  0  0  0  0
    6.0530   12.6210    1.5500 C   0  0  0  0  0  0  0  0  0  0  0  0
    5.1030   12.6830    2.7570 C   0  0  0  0  0  0  0  0  0  0  0  0
    3.8710   12.0150    2.3100 N   0  3  0  0  0  0  0  0  0  0  0  0
    2.7510   12.5140    3.1340 C   0  0  0  0  0  0  0  0  0  0  0  0
    1.4850   12.0220    2.4280 C   0  0  0  0  0  0  0  0  0  0  0  0
    1.5290   10.4880    2.4150 C   0  0  0  0  0  0  0  0  0  0  0  0
    0.4660   10.0570    1.5440 N   0  0  0  0  0  0  0  0  0  0  0  0
   -0.8470    9.9520    1.9060 C   0  0  0  0  0  0  0  0  0  0  0  0
   -1.1060   10.2390    3.0760 O   0  0  0  0  0  0  0  0  0  0  0  0
   -1.8160    9.5240    0.8920 C   0  0  0  0  0  0  0  0  0  0  0  0
   -1.9080    9.9850   -0.4350 C   0  0  0  0  0  0  0  0  0  0  0  0
   -1.1810   10.9980   -1.1430 N   0  0  0  0  0  0  0  0  0  0  0  0
    0.0880   10.8510   -1.6590 C   0  0  0  0  0  0  0  0  0  0  0  0
    0.7830    9.9440   -1.2110 O   0  0  0  0  0  0  0  0  0  0  0  0
    0.5430   11.7760   -2.6850 C   0  0  0  0  0  0  0  0  0  0  0  0
   -0.1750   11.9390   -3.8880 C   0  0  0  0  0  0  0  0  0  0  0  0
   -1.6390   11.0560   -4.2120 Cl  0  0  0  0  0  0  0  0  0  0  0  0
    0.2750   12.8150   -4.8770 C   0  0  0  0  0  0  0  0  0  0  0  0
    1.4490   13.5350   -4.6890 C   0  0  0  0  0  0  0  0  0  0  0  0
    2.1760   13.3890   -3.5150 C   0  0  0  0  0  0  0  0  0  0  0  0
    1.7300   12.5200   -2.5170 C   0  0  0  0  0  0  0  0  0  0  0  0
    2.6850   12.4230   -1.0630 Cl  0  0  0  0  0  0  0  0  0  0  0  0
   -2.9300    9.3390   -1.0330 C   0  0  0  0  0  0  0  0  0  0  0  0
   -3.4280    8.5110   -0.0820 N   0  0  0  0  0  0  0  0  0  0  0  0
   -2.7710    8.6110    1.0920 N   0  0  0  0  0  0  0  0  0  0  0  0
    2.8150    9.9350    1.7890 C   0  0  0  0  0  0  0  0  0  0  0  0
    3.9960   10.5580    2.5380 C   0  0  0  0  0  0  0  0  0  0  0  0
   10.3190   14.7480   -1.2190 N   0  0  0  0  0  0  0  0  0  0  0  0
   11.2920   14.4110   -2.0310 N   0  0  0  0  0  0  0  0  0  0  0  0
   21.4050   15.4740   -1.6140 C   0  0  0  0  0  0  0  0  0  0  0  0
   21.1060   16.7200   -0.9520 C   0  0  0  0  0  0  0  0  0  0  0  0
   20.0370   17.1980   -0.5990 O   0  0  0  0  0  0  0  0  0  0  0  0
   21.6560   19.7340   -1.0410 C   0  0  0  0  0  0  0  0  0  0  0  0
   21.5310   19.6750   -2.2440 O   0  0  0  0  0  0  0  0  0  0  0  0
   21.0520   20.7950   -0.4380 N   0  0  0  0  0  0  0  0  0  0  0  0
   23.1180   20.6060    1.6420 H   0  0  0  0  0  0  0  0  0  0  0  0
   21.7960   20.3030    2.7950 H   0  0  0  0  0  0  0  0  0  0  0  0
   20.9940   18.4030    1.3500 H   0  0  0  0  0  0  0  0  0  0  0  0
   22.6730   18.1410    1.8810 H   0  0  0  0  0  0  0  0  0  0  0  0
   23.5310   19.0390   -0.2720 H   0  0  0  0  0  0  0  0  0  0  0  0
   24.4490   14.2590   -2.5120 H   0  0  0  0  0  0  0  0  0  0  0  0
   23.0150   12.4110   -3.3410 H   0  0  0  0  0  0  0  0  0  0  0  0
   20.5560   12.5190   -3.0610 H   0  0  0  0  0  0  0  0  0  0  0  0
   18.2220   13.5330   -3.4180 H   0  0  0  0  0  0  0  0  0  0  0  0
   18.4310   12.6040   -1.9140 H   0  0  0  0  0  0  0  0  0  0  0  0
   16.9890   14.2330   -0.7080 H   0  0  0  0  0  0  0  0  0  0  0  0
   16.7820   15.1640   -2.2110 H   0  0  0  0  0  0  0  0  0  0  0  0
   15.6390   13.2450   -3.2580 H   0  0  0  0  0  0  0  0  0  0  0  0
   15.8780   12.2820   -1.7800 H   0  0  0  0  0  0  0  0  0  0  0  0
   14.2830   14.8890   -1.9700 H   0  0  0  0  0  0  0  0  0  0  0  0
   14.5230   13.9280   -0.4910 H   0  0  0  0  0  0  0  0  0  0  0  0
   13.4430   11.9530   -1.6080 H   0  0  0  0  0  0  0  0  0  0  0  0
   13.1840   12.9320   -3.0730 H   0  0  0  0  0  0  0  0  0  0  0  0
   12.0200   12.6530    0.5860 H   0  0  0  0  0  0  0  0  0  0  0  0
   10.0790   13.7710    2.0180 H   0  0  0  0  0  0  0  0  0  0  0  0
    9.3320   15.2270    1.3160 H   0  0  0  0  0  0  0  0  0  0  0  0
    7.8640   13.8000   -0.0930 H   0  0  0  0  0  0  0  0  0  0  0  0
    8.6170   12.3410    0.5920 H   0  0  0  0  0  0  0  0  0  0  0  0
    7.0560   14.4260    2.1810 H   0  0  0  0  0  0  0  0  0  0  0  0
    7.7660   12.9280    2.8290 H   0  0  0  0  0  0  0  0  0  0  0  0
    6.3010   11.5850    1.3190 H   0  0  0  0  0  0  0  0  0  0  0  0
    5.5880   13.0850    0.6810 H   0  0  0  0  0  0  0  0  0  0  0  0
    4.8990   13.7180    3.0310 H   0  0  0  0  0  0  0  0  0  0  0  0
    5.5340   12.1600    3.6100 H   0  0  0  0  0  0  0  0  0  0  0  0
    3.7130   12.2010    1.3300 H   0  0  0  0  0  0  0  0  0  0  0  0
    2.8080   12.1080    4.1440 H   0  0  0  0  0  0  0  0  0  0  0  0
    2.7650   13.6030    3.1790 H   0  0  0  0  0  0  0  0  0  0  0  0
    1.4570   12.4020    1.4070 H   0  0  0  0  0  0  0  0  0  0  0  0
    0.6020   12.3640    2.9670 H   0  0  0  0  0  0  0  0  0  0  0  0
    1.4550   10.1400    3.4450 H   0  0  0  0  0  0  0  0  0  0  0  0
    0.7100    9.8140    0.5940 H   0  0  0  0  0  0  0  0  0  0  0  0
   -1.6350   11.8900   -1.2740 H   0  0  0  0  0  0  0  0  0  0  0  0
   -0.2900   12.9340   -5.7900 H   0  0  0  0  0  0  0  0  0  0  0  0
    1.7960   14.2090   -5.4580 H   0  0  0  0  0  0  0  0  0  0  0  0
    3.0890   13.9490   -3.3730 H   0  0  0  0  0  0  0  0  0  0  0  0
   -3.2760    9.4560   -2.0490 H   0  0  0  0  0  0  0  0  0  0  0  0
   -4.2070    7.8870   -0.2360 H   0  0  0  0  0  0  0  0  0  0  0  0
    2.8410    8.8500    1.8900 H   0  0  0  0  0  0  0  0  0  0  0  0
    2.8600   10.2030    0.7340 H   0  0  0  0  0  0  0  0  0  0  0  0
    4.9400   10.1880    2.1390 H   0  0  0  0  0  0  0  0  0  0  0  0
    3.9370   10.3310    3.6020 H   0  0  0  0  0  0  0  0  0  0  0  0
   20.4970   21.4180   -1.0070 H   0  0  0  0  0  0  0  0  0  0  0  0
  1  2  2  0  0  0  0
  2  3  1  0  0  0  0
  2 60  1  0  0  0  0
  3  4  1  0  0  0  0
  3 61  1  0  0  0  0
  3 62  1  0  0  0  0
  4  5  1  0  0  0  0
  4 63  1  0  0  0  0
  4 64  1  0  0  0  0
  5  6  1  0  0  0  0
  5 58  1  0  0  0  0
  5 65  1  0  0  0  0
  6  7  1  0  0  0  0
  6 56  1  0  0  0  0
  7  8  2  0  0  0  0
  7  9  1  0  0  0  0
  9 10  1  0  0  0  0
  9 55  2  0  0  0  0
 10 11  2  0  0  0  0
 10 66  1  0  0  0  0
 11 12  1  0  0  0  0
 11 67  1  0  0  0  0
 12 13  2  0  0  0  0
 12 68  1  0  0  0  0
 13 14  1  0  0  0  0
 13 55  1  0  0  0  0
 14 15  1  0  0  0  0
 15 16  1  0  0  0  0
 15 69  1  0  0  0  0
 15 70  1  0  0  0  0
 16 17  1  0  0  0  0
 16 71  1  0  0  0  0
 16 72  1  0  0  0  0
 17 18  1  0  0  0  0
 17 73  1  0  0  0  0
 17 74  1  0  0  0  0
 18 19  1  0  0  0  0
 18 75  1  0  0  0  0
 18 76  1  0  0  0  0
 19 20  1  0  0  0  0
 19 77  1  0  0  0  0
 19 78  1  0  0  0  0
 20 21  1  0  0  0  0
 20 54  1  0  0  0  0
 21 22  2  0  0  0  0
 21 79  1  0  0  0  0
 22 23  1  0  0  0  0
 22 53  1  0  0  0  0
 23 24  1  0  0  0  0
 23 80  1  0  0  0  0
 23 81  1  0  0  0  0
 24 25  1  0  0  0  0
 24 82  1  0  0  0  0
 24 83  1  0  0  0  0
 25 26  1  0  0  0  0
 25 84  1  0  0  0  0
 25 85  1  0  0  0  0
 26 27  1  0  0  0  0
 26 86  1  0  0  0  0
 26 87  1  0  0  0  0
 27 28  1  0  0  0  0
 27 88  1  0  0  0  0
 27 89  1  0  0  0  0
 28 29  1  0  0  0  0
 28 52  1  0  0  0  0
 28 90  1  0  0  0  0
 29 30  1  0  0  0  0
 29 91  1  0  0  0  0
 29 92  1  0  0  0  0
 30 31  1  0  0  0  0
 30 93  1  0  0  0  0
 30 94  1  0  0  0  0
 31 32  1  0  0  0  0
 31 51  1  0  0  0  0
 31 95  1  0  0  0  0
 32 33  1  0  0  0  0
 32 96  1  0  0  0  0
 33 34  2  0  0  0  0
 33 35  1  0  0  0  0
 35 36  1  0  0  0  0
 35 50  2  0  0  0  0
 36 37  1  0  0  0  0
 36 48  2  0  0  0  0
 37 38  1  0  0  0  0
 37 97  1  0  0  0  0
 38 39  2  0  0  0  0
 38 40  1  0  0  0  0
 40 41  1  0  0  0  0
 40 46  2  0  0  0  0
 41 42  1  0  0  0  0
 41 43  2  0  0  0  0
 43 44  1  0  0  0  0
 43 98  1  0  0  0  0
 44 45  2  0  0  0  0
 44 99  1  0  0  0  0
 45 46  1  0  0  0  0
 45100  1  0  0  0  0
 46 47  1  0  0  0  0
 48 49  1  0  0  0  0
 48101  1  0  0  0  0
 49 50  1  0  0  0  0
 49102  1  0  0  0  0
 51 52  1  0  0  0  0
 51103  1  0  0  0  0
 51104  1  0  0  0  0
 52105  1  0  0  0  0
 52106  1  0  0  0  0
 53 54  2  0  0  0  0
 55 56  1  0  0  0  0
 56 57  2  0  0  0  0
 58 59  2  0  0  0  0
 58 60  1  0  0  0  0
 60107  1  0  0  0  0
M  CHG  1  28   1
M  END
>  <Compound ID>
3570

>  <Uniprot>
P50750

>  <Target>
CDK9

>  <E3 ligase>
CRBN

>  <IC50 (nM, Cellular activities)>
130/450/260

>  <Assay (Cellular activities, IC50)>
Cell cytotoxicity (IC50) was determined in MV4-11 cells after 48 h treatment/Post-WO IC50 was determined after 6 h treatment and a total incubation time of 48 h/No-WO IC50 was determined after 6 h treatment and a total incubation time of 48 h

>  <Article DOI>
10.1021/acsmedchemlett.3c00082

>  <Molecular Weight>
861.78802

>  <Exact Mass>
860.29279

>  <XLogP3>
4.77

>  <Heavy Atom Count>
60

>  <Ring Count>
7

>  <Hydrogen Bond Acceptor Count>
12

>  <Hydrogen Bond Donor Count>
4

>  <Rotatable Bond Count>
18

>  <Topological Polar Surface Area>
213.61

>  <Molecular Formula>
C41H46Cl2N10O7

>  <InChI>
InChI=1S/C41H46Cl2N10O7/c42-28-11-8-12-29(43)35(28)38(56)46-30-23-44-49-36(30)39(57)45-25-16-20-51(21-17-25)18-4-1-3-9-26-24-52(50-48-26)19-5-2-6-22-60-32-13-7-10-27-34(32)41(59)53(40(27)58)31-14-15-33(54)47-37(31)55/h7-8,10-13,23-25,31H,1-6,9,14-22H2,(H,44,49)(H,45,57)(H,46,56)(H,47,54,55)

>  <InChI Key>
RVWBTXSGZFJYEH-UHFFFAOYSA-N

>  <Dmax (%)>
68.5

>  <DC50 (nM)>
950

>  <Assay (DC50/Dmax)>
Degradation of CDK9 in MOLM-13 cells

$$$$
3571
  MOE2018           3D

107113  0  0  1  0  0  0  0  0999 V2000
   29.4990   18.0170   -1.3710 O   0  0  0  0  0  0  0  0  0  0  0  0
   29.4860   16.8160   -1.2880 C   0  0  0  0  0  0  0  0  0  0  0  0
   30.1710   16.0470   -0.1740 C   0  0  0  0  0  0  0  0  0  0  0  0
   29.2720   14.8440    0.1950 C   0  0  0  0  0  0  0  0  0  0  0  0
   29.1520   13.9600   -1.0740 C   0  0  1  0  0  0  0  0  0  0  0  0
   28.2050   12.8740   -0.7850 N   0  0  0  0  0  0  0  0  0  0  0  0
   28.5390   11.5350   -0.8160 C   0  0  0  0  0  0  0  0  0  0  0  0
   29.6900   11.1550   -0.9690 O   0  0  0  0  0  0  0  0  0  0  0  0
   27.3320   10.7660   -0.6280 C   0  0  0  0  0  0  0  0  0  0  0  0
   27.1170    9.3880   -0.5800 C   0  0  0  0  0  0  0  0  0  0  0  0
   25.8190    8.9140   -0.3780 C   0  0  0  0  0  0  0  0  0  0  0  0
   24.7540    9.8090   -0.2240 C   0  0  0  0  0  0  0  0  0  0  0  0
   24.9910   11.1880   -0.2730 C   0  0  0  0  0  0  0  0  0  0  0  0
   23.9820   12.0990   -0.1190 O   0  0  0  0  0  0  0  0  0  0  0  0
   22.5970   11.8070    0.1530 C   0  0  0  0  0  0  0  0  0  0  0  0
   21.9460   13.1820    0.3190 C   0  0  0  0  0  0  0  0  0  0  0  0
   20.4480   13.0530    0.6430 C   0  0  0  0  0  0  0  0  0  0  0  0
   19.9080   14.4870    0.8370 C   0  0  0  0  0  0  0  0  0  0  0  0
   18.5020   14.3540    1.2000 N   0  0  0  0  0  0  0  0  0  0  0  0
   17.4480   14.4140    0.3860 C   0  0  0  0  0  0  0  0  0  0  0  0
   16.3790   14.2210    1.1800 C   0  0  0  0  0  0  0  0  0  0  0  0
   14.9270   14.1910    0.7600 C   0  0  0  0  0  0  0  0  0  0  0  0
   14.5670   12.7140    0.5360 C   0  0  0  0  0  0  0  0  0  0  0  0
   13.0670   12.5440    0.2510 C   0  0  0  0  0  0  0  0  0  0  0  0
   12.7300   11.0640    0.0210 C   0  0  0  0  0  0  0  0  0  0  0  0
   11.2130   10.8710   -0.1270 C   0  0  0  0  0  0  0  0  0  0  0  0
   10.9940    9.3690   -0.3660 C   0  0  0  0  0  0  0  0  0  0  0  0
    9.5330    9.1870   -0.4010 N   0  3  0  0  0  0  0  0  0  0  0  0
    9.0540    8.9410    0.9810 C   0  0  0  0  0  0  0  0  0  0  0  0
    7.5260    8.9920    0.9010 C   0  0  0  0  0  0  0  0  0  0  0  0
    7.0900    7.8570   -0.0300 C   0  0  0  0  0  0  0  0  0  0  0  0
    5.6700    8.0040   -0.2280 N   0  0  0  0  0  0  0  0  0  0  0  0
    4.7170    7.4700    0.5950 C   0  0  0  0  0  0  0  0  0  0  0  0
    5.1400    6.9210    1.6150 O   0  0  0  0  0  0  0  0  0  0  0  0
    3.3060    7.5870    0.2100 C   0  0  0  0  0  0  0  0  0  0  0  0
    2.6660    8.7140   -0.3400 C   0  0  0  0  0  0  0  0  0  0  0  0
    3.1450   10.0360   -0.6190 N   0  0  0  0  0  0  0  0  0  0  0  0
    3.9260   10.3830   -1.6990 C   0  0  0  0  0  0  0  0  0  0  0  0
    4.5290    9.4850   -2.2800 O   0  0  0  0  0  0  0  0  0  0  0  0
    4.0060   11.7800   -2.0830 C   0  0  0  0  0  0  0  0  0  0  0  0
    2.8520   12.4990   -2.4550 C   0  0  0  0  0  0  0  0  0  0  0  0
    1.2770   11.7580   -2.4600 Cl  0  0  0  0  0  0  0  0  0  0  0  0
    2.9370   13.8360   -2.8450 C   0  0  0  0  0  0  0  0  0  0  0  0
    4.1700   14.4770   -2.8730 C   0  0  0  0  0  0  0  0  0  0  0  0
    5.3220   13.7880   -2.5120 C   0  0  0  0  0  0  0  0  0  0  0  0
    5.2450   12.4520   -2.1170 C   0  0  0  0  0  0  0  0  0  0  0  0
    6.7290   11.6680   -1.6500 Cl  0  0  0  0  0  0  0  0  0  0  0  0
    1.3700    8.4040   -0.5450 C   0  0  0  0  0  0  0  0  0  0  0  0
    1.2450    7.1190   -0.1310 N   0  0  0  0  0  0  0  0  0  0  0  0
    2.4040    6.6080    0.3340 N   0  0  0  0  0  0  0  0  0  0  0  0
    7.7250    7.9800   -1.4180 C   0  0  0  0  0  0  0  0  0  0  0  0
    9.2450    7.9880   -1.2180 C   0  0  0  0  0  0  0  0  0  0  0  0
   16.7900   14.0410    2.4510 N   0  0  0  0  0  0  0  0  0  0  0  0
   18.0980   14.1230    2.4560 N   0  0  0  0  0  0  0  0  0  0  0  0
   26.2890   11.6600   -0.4810 C   0  0  0  0  0  0  0  0  0  0  0  0
   26.8360   12.9910   -0.5800 C   0  0  0  0  0  0  0  0  0  0  0  0
   26.2920   14.0830   -0.4930 O   0  0  0  0  0  0  0  0  0  0  0  0
   28.6480   14.7970   -2.2620 C   0  0  0  0  0  0  0  0  0  0  0  0
   28.1200   14.3340   -3.2480 O   0  0  0  0  0  0  0  0  0  0  0  0
   28.8370   16.1450   -2.2740 N   0  0  0  0  0  0  0  0  0  0  0  0
   31.1440   15.6920   -0.5130 H   0  0  0  0  0  0  0  0  0  0  0  0
   30.3020   16.6920    0.6950 H   0  0  0  0  0  0  0  0  0  0  0  0
   28.2860   15.1940    0.5020 H   0  0  0  0  0  0  0  0  0  0  0  0
   29.7240   14.2740    1.0070 H   0  0  0  0  0  0  0  0  0  0  0  0
   30.1270   13.5510   -1.3380 H   0  0  0  0  0  0  0  0  0  0  0  0
   27.9410    8.6990   -0.6970 H   0  0  0  0  0  0  0  0  0  0  0  0
   25.6360    7.8500   -0.3400 H   0  0  0  0  0  0  0  0  0  0  0  0
   23.7520    9.4370   -0.0680 H   0  0  0  0  0  0  0  0  0  0  0  0
   22.1460   11.2640   -0.6780 H   0  0  0  0  0  0  0  0  0  0  0  0
   22.4980   11.2200    1.0660 H   0  0  0  0  0  0  0  0  0  0  0  0
   22.4410   13.7140    1.1320 H   0  0  0  0  0  0  0  0  0  0  0  0
   22.0620   13.7450   -0.6070 H   0  0  0  0  0  0  0  0  0  0  0  0
   20.3100   12.4730    1.5560 H   0  0  0  0  0  0  0  0  0  0  0  0
   19.9270   12.5640   -0.1800 H   0  0  0  0  0  0  0  0  0  0  0  0
   20.0060   15.0550   -0.0880 H   0  0  0  0  0  0  0  0  0  0  0  0
   20.4560   14.9910    1.6330 H   0  0  0  0  0  0  0  0  0  0  0  0
   17.4510   14.5810   -0.6810 H   0  0  0  0  0  0  0  0  0  0  0  0
   14.3000   14.6170    1.5430 H   0  0  0  0  0  0  0  0  0  0  0  0
   14.7900   14.7560   -0.1620 H   0  0  0  0  0  0  0  0  0  0  0  0
   15.1350   12.3350   -0.3130 H   0  0  0  0  0  0  0  0  0  0  0  0
   14.8260   12.1460    1.4290 H   0  0  0  0  0  0  0  0  0  0  0  0
   12.4960   12.9140    1.1020 H   0  0  0  0  0  0  0  0  0  0  0  0
   12.8040   13.1150   -0.6390 H   0  0  0  0  0  0  0  0  0  0  0  0
   13.0840   10.4800    0.8700 H   0  0  0  0  0  0  0  0  0  0  0  0
   13.2250   10.7210   -0.8880 H   0  0  0  0  0  0  0  0  0  0  0  0
   10.8400   11.4470   -0.9740 H   0  0  0  0  0  0  0  0  0  0  0  0
   10.7010   11.1880    0.7820 H   0  0  0  0  0  0  0  0  0  0  0  0
   11.4320    8.7860    0.4450 H   0  0  0  0  0  0  0  0  0  0  0  0
   11.4390    9.0650   -1.3130 H   0  0  0  0  0  0  0  0  0  0  0  0
    9.0790   10.0030   -0.7870 H   0  0  0  0  0  0  0  0  0  0  0  0
    9.3850    7.9630    1.3300 H   0  0  0  0  0  0  0  0  0  0  0  0
    9.4260    9.7120    1.6560 H   0  0  0  0  0  0  0  0  0  0  0  0
    7.2040    9.9520    0.4980 H   0  0  0  0  0  0  0  0  0  0  0  0
    7.0940    8.8510    1.8920 H   0  0  0  0  0  0  0  0  0  0  0  0
    7.3840    6.9080    0.4180 H   0  0  0  0  0  0  0  0  0  0  0  0
    5.3580    8.5370   -1.0270 H   0  0  0  0  0  0  0  0  0  0  0  0
    2.8900   10.7700    0.0260 H   0  0  0  0  0  0  0  0  0  0  0  0
    2.0430   14.3740   -3.1260 H   0  0  0  0  0  0  0  0  0  0  0  0
    4.2330   15.5120   -3.1760 H   0  0  0  0  0  0  0  0  0  0  0  0
    6.2790   14.2880   -2.5370 H   0  0  0  0  0  0  0  0  0  0  0  0
    0.5980    9.0410   -0.9510 H   0  0  0  0  0  0  0  0  0  0  0  0
    0.3790    6.6010   -0.1670 H   0  0  0  0  0  0  0  0  0  0  0  0
    7.4340    7.1330   -2.0390 H   0  0  0  0  0  0  0  0  0  0  0  0
    7.4060    8.9070   -1.8950 H   0  0  0  0  0  0  0  0  0  0  0  0
    9.7550    8.0510   -2.1790 H   0  0  0  0  0  0  0  0  0  0  0  0
    9.5650    7.0860   -0.6960 H   0  0  0  0  0  0  0  0  0  0  0  0
   28.4760   16.6730   -3.0560 H   0  0  0  0  0  0  0  0  0  0  0  0
  1  2  2  0  0  0  0
  2  3  1  0  0  0  0
  2 60  1  0  0  0  0
  3  4  1  0  0  0  0
  3 61  1  0  0  0  0
  3 62  1  0  0  0  0
  4  5  1  0  0  0  0
  4 63  1  0  0  0  0
  4 64  1  0  0  0  0
  5  6  1  0  0  0  0
  5 58  1  0  0  0  0
  5 65  1  0  0  0  0
  6  7  1  0  0  0  0
  6 56  1  0  0  0  0
  7  8  2  0  0  0  0
  7  9  1  0  0  0  0
  9 10  1  0  0  0  0
  9 55  2  0  0  0  0
 10 11  2  0  0  0  0
 10 66  1  0  0  0  0
 11 12  1  0  0  0  0
 11 67  1  0  0  0  0
 12 13  2  0  0  0  0
 12 68  1  0  0  0  0
 13 14  1  0  0  0  0
 13 55  1  0  0  0  0
 14 15  1  0  0  0  0
 15 16  1  0  0  0  0
 15 69  1  0  0  0  0
 15 70  1  0  0  0  0
 16 17  1  0  0  0  0
 16 71  1  0  0  0  0
 16 72  1  0  0  0  0
 17 18  1  0  0  0  0
 17 73  1  0  0  0  0
 17 74  1  0  0  0  0
 18 19  1  0  0  0  0
 18 75  1  0  0  0  0
 18 76  1  0  0  0  0
 19 20  1  0  0  0  0
 19 54  1  0  0  0  0
 20 21  2  0  0  0  0
 20 77  1  0  0  0  0
 21 22  1  0  0  0  0
 21 53  1  0  0  0  0
 22 23  1  0  0  0  0
 22 78  1  0  0  0  0
 22 79  1  0  0  0  0
 23 24  1  0  0  0  0
 23 80  1  0  0  0  0
 23 81  1  0  0  0  0
 24 25  1  0  0  0  0
 24 82  1  0  0  0  0
 24 83  1  0  0  0  0
 25 26  1  0  0  0  0
 25 84  1  0  0  0  0
 25 85  1  0  0  0  0
 26 27  1  0  0  0  0
 26 86  1  0  0  0  0
 26 87  1  0  0  0  0
 27 28  1  0  0  0  0
 27 88  1  0  0  0  0
 27 89  1  0  0  0  0
 28 29  1  0  0  0  0
 28 52  1  0  0  0  0
 28 90  1  0  0  0  0
 29 30  1  0  0  0  0
 29 91  1  0  0  0  0
 29 92  1  0  0  0  0
 30 31  1  0  0  0  0
 30 93  1  0  0  0  0
 30 94  1  0  0  0  0
 31 32  1  0  0  0  0
 31 51  1  0  0  0  0
 31 95  1  0  0  0  0
 32 33  1  0  0  0  0
 32 96  1  0  0  0  0
 33 34  2  0  0  0  0
 33 35  1  0  0  0  0
 35 36  1  0  0  0  0
 35 50  2  0  0  0  0
 36 37  1  0  0  0  0
 36 48  2  0  0  0  0
 37 38  1  0  0  0  0
 37 97  1  0  0  0  0
 38 39  2  0  0  0  0
 38 40  1  0  0  0  0
 40 41  1  0  0  0  0
 40 46  2  0  0  0  0
 41 42  1  0  0  0  0
 41 43  2  0  0  0  0
 43 44  1  0  0  0  0
 43 98  1  0  0  0  0
 44 45  2  0  0  0  0
 44 99  1  0  0  0  0
 45 46  1  0  0  0  0
 45100  1  0  0  0  0
 46 47  1  0  0  0  0
 48 49  1  0  0  0  0
 48101  1  0  0  0  0
 49 50  1  0  0  0  0
 49102  1  0  0  0  0
 51 52  1  0  0  0  0
 51103  1  0  0  0  0
 51104  1  0  0  0  0
 52105  1  0  0  0  0
 52106  1  0  0  0  0
 53 54  2  0  0  0  0
 55 56  1  0  0  0  0
 56 57  2  0  0  0  0
 58 59  2  0  0  0  0
 58 60  1  0  0  0  0
 60107  1  0  0  0  0
M  CHG  1  28   1
M  END
>  <Compound ID>
3571

>  <Uniprot>
P50750

>  <Target>
CDK9

>  <E3 ligase>
CRBN

>  <IC50 (nM, Cellular activities)>
70/260/120

>  <Assay (Cellular activities, IC50)>
Cell cytotoxicity (IC50) was determined in MV4-11 cells after 48 h treatment/Post-WO IC50 was determined after 6 h treatment and a total incubation time of 48 h/No-WO IC50 was determined after 6 h treatment and a total incubation time of 48 h

>  <Article DOI>
10.1021/acsmedchemlett.3c00082

>  <Molecular Weight>
861.78802

>  <Exact Mass>
860.29279

>  <XLogP3>
4.9499998

>  <Heavy Atom Count>
60

>  <Ring Count>
7

>  <Hydrogen Bond Acceptor Count>
12

>  <Hydrogen Bond Donor Count>
4

>  <Rotatable Bond Count>
18

>  <Topological Polar Surface Area>
213.61

>  <Molecular Formula>
C41H46Cl2N10O7

>  <InChI>
InChI=1S/C41H46Cl2N10O7/c42-28-11-8-12-29(43)35(28)38(56)46-30-23-44-49-36(30)39(57)45-25-16-20-51(21-17-25)18-4-2-1-3-9-26-24-52(50-48-26)19-5-6-22-60-32-13-7-10-27-34(32)41(59)53(40(27)58)31-14-15-33(54)47-37(31)55/h7-8,10-13,23-25,31H,1-6,9,14-22H2,(H,44,49)(H,45,57)(H,46,56)(H,47,54,55)

>  <InChI Key>
ZIUVTWBLWUJBEY-UHFFFAOYSA-N

>  <Dmax (%)>
75.3

>  <DC50 (nM)>
100

>  <Assay (DC50/Dmax)>
Degradation of CDK9 in MOLM-13 cells

$$$$
3572
  MOE2018           3D

119125  0  0  1  0  0  0  0  0999 V2000
   41.0040    2.7650    3.7280 O   0  0  0  0  0  0  0  0  0  0  0  0
   40.5150    2.9500    2.6440 C   0  0  0  0  0  0  0  0  0  0  0  0
   40.5040    1.9060    1.5430 C   0  0  0  0  0  0  0  0  0  0  0  0
   39.1570    2.0210    0.7910 C   0  0  0  0  0  0  0  0  0  0  0  0
   39.0970    3.4460    0.1820 C   0  0  1  0  0  0  0  0  0  0  0  0
   37.7790    3.6170   -0.4490 N   0  0  0  0  0  0  0  0  0  0  0  0
   37.6000    3.8420   -1.7980 C   0  0  0  0  0  0  0  0  0  0  0  0
   38.5270    3.8110   -2.5930 O   0  0  0  0  0  0  0  0  0  0  0  0
   36.1960    4.0790   -2.0310 C   0  0  0  0  0  0  0  0  0  0  0  0
   35.4940    4.3520   -3.2070 C   0  0  0  0  0  0  0  0  0  0  0  0
   34.1120    4.5340   -3.1390 C   0  0  0  0  0  0  0  0  0  0  0  0
   33.4440    4.4430   -1.9130 C   0  0  0  0  0  0  0  0  0  0  0  0
   34.1650    4.1690   -0.7440 C   0  0  0  0  0  0  0  0  0  0  0  0
   33.5510    4.0690    0.4780 O   0  0  0  0  0  0  0  0  0  0  0  0
   32.1340    4.1410    0.7750 C   0  0  0  0  0  0  0  0  0  0  0  0
   31.5780    2.7400    0.4860 C   0  0  0  0  0  0  0  0  0  0  0  0
   30.0820    2.6020    0.8130 C   0  0  0  0  0  0  0  0  0  0  0  0
   29.1870    3.4290   -0.1250 C   0  0  0  0  0  0  0  0  0  0  0  0
   27.7050    3.1910    0.1970 C   0  0  0  0  0  0  0  0  0  0  0  0
   26.8100    3.9930   -0.7560 C   0  0  0  0  0  0  0  0  0  0  0  0
   25.3260    3.7620   -0.4250 C   0  0  0  0  0  0  0  0  0  0  0  0
   24.5080    4.5850   -1.4420 C   0  0  0  0  0  0  0  0  0  0  0  0
   23.1020    4.3740   -1.1220 N   0  0  0  0  0  0  0  0  0  0  0  0
   22.3530    5.0920   -0.2850 C   0  0  0  0  0  0  0  0  0  0  0  0
   21.1350    4.5240   -0.3260 C   0  0  0  0  0  0  0  0  0  0  0  0
   19.9010    4.9760    0.4220 C   0  0  0  0  0  0  0  0  0  0  0  0
   19.1730    5.9510   -0.5160 C   0  0  0  0  0  0  0  0  0  0  0  0
   17.8580    6.4560    0.0950 C   0  0  0  0  0  0  0  0  0  0  0  0
   17.1740    7.4320   -0.8720 C   0  0  0  0  0  0  0  0  0  0  0  0
   15.8260    7.9080   -0.3090 C   0  0  0  0  0  0  0  0  0  0  0  0
   15.2510    8.8770   -1.3540 C   0  0  0  0  0  0  0  0  0  0  0  0
   13.9130    9.2440   -0.8630 N   0  3  0  0  0  0  0  0  0  0  0  0
   13.1180    9.6930   -2.0260 C   0  0  0  0  0  0  0  0  0  0  0  0
   11.6780    9.8030   -1.5180 C   0  0  0  0  0  0  0  0  0  0  0  0
   11.6710   10.8650   -0.4120 C   0  0  0  0  0  0  0  0  0  0  0  0
   10.3560   10.8340    0.1790 N   0  0  0  0  0  0  0  0  0  0  0  0
    9.2750   11.5160   -0.3060 C   0  0  0  0  0  0  0  0  0  0  0  0
    9.4610   12.1370   -1.3550 O   0  0  0  0  0  0  0  0  0  0  0  0
    8.0130   11.4550    0.4390 C   0  0  0  0  0  0  0  0  0  0  0  0
    7.4240   10.3150    1.0200 C   0  0  0  0  0  0  0  0  0  0  0  0
    7.8130    8.9350    1.0110 N   0  0  0  0  0  0  0  0  0  0  0  0
    8.8100    8.3860    1.7870 C   0  0  0  0  0  0  0  0  0  0  0  0
    9.6400    9.1500    2.2700 O   0  0  0  0  0  0  0  0  0  0  0  0
    8.8370    6.9460    1.9800 C   0  0  0  0  0  0  0  0  0  0  0  0
    9.9730    6.1890    1.6260 C   0  0  0  0  0  0  0  0  0  0  0  0
   11.3760    6.9200    0.8940 Cl  0  0  0  0  0  0  0  0  0  0  0  0
   10.0050    4.8090    1.8340 C   0  0  0  0  0  0  0  0  0  0  0  0
    8.9100    4.1610    2.3920 C   0  0  0  0  0  0  0  0  0  0  0  0
    7.7780    4.8850    2.7470 C   0  0  0  0  0  0  0  0  0  0  0  0
    7.7390    6.2660    2.5470 C   0  0  0  0  0  0  0  0  0  0  0  0
    6.2950    7.1060    3.0350 Cl  0  0  0  0  0  0  0  0  0  0  0  0
    6.2720   10.6920    1.6090 C   0  0  0  0  0  0  0  0  0  0  0  0
    6.1810   12.0260    1.3870 N   0  0  0  0  0  0  0  0  0  0  0  0
    7.2220   12.5070    0.6760 N   0  0  0  0  0  0  0  0  0  0  0  0
   12.6480   10.5290    0.7180 C   0  0  0  0  0  0  0  0  0  0  0  0
   14.0350   10.3760    0.0840 C   0  0  0  0  0  0  0  0  0  0  0  0
   21.1560    3.4750   -1.1740 N   0  0  0  0  0  0  0  0  0  0  0  0
   22.3720    3.3870   -1.6590 N   0  0  0  0  0  0  0  0  0  0  0  0
   35.5500    3.9890   -0.8130 C   0  0  0  0  0  0  0  0  0  0  0  0
   36.5470    3.6960    0.1880 C   0  0  0  0  0  0  0  0  0  0  0  0
   36.4390    3.5060    1.3910 O   0  0  0  0  0  0  0  0  0  0  0  0
   39.3040    4.5020    1.2810 C   0  0  0  0  0  0  0  0  0  0  0  0
   38.9510    5.6570    1.1940 O   0  0  0  0  0  0  0  0  0  0  0  0
   39.9770    4.1760    2.4190 N   0  0  0  0  0  0  0  0  0  0  0  0
   41.3290    2.0860    0.8540 H   0  0  0  0  0  0  0  0  0  0  0  0
   40.6030    0.9100    1.9760 H   0  0  0  0  0  0  0  0  0  0  0  0
   38.3280    1.8750    1.4840 H   0  0  0  0  0  0  0  0  0  0  0  0
   39.1050    1.2730    0.0000 H   0  0  0  0  0  0  0  0  0  0  0  0
   39.8860    3.5730   -0.5590 H   0  0  0  0  0  0  0  0  0  0  0  0
   36.0110    4.4210   -4.1520 H   0  0  0  0  0  0  0  0  0  0  0  0
   33.5540    4.7470   -4.0390 H   0  0  0  0  0  0  0  0  0  0  0  0
   32.3740    4.5840   -1.8680 H   0  0  0  0  0  0  0  0  0  0  0  0
   31.9780    4.4040    1.8210 H   0  0  0  0  0  0  0  0  0  0  0  0
   31.6490    4.8810    0.1380 H   0  0  0  0  0  0  0  0  0  0  0  0
   31.7230    2.5210   -0.5720 H   0  0  0  0  0  0  0  0  0  0  0  0
   32.1320    2.0170    1.0850 H   0  0  0  0  0  0  0  0  0  0  0  0
   29.8020    1.5520    0.7250 H   0  0  0  0  0  0  0  0  0  0  0  0
   29.9170    2.9380    1.8370 H   0  0  0  0  0  0  0  0  0  0  0  0
   29.4160    4.4870    0.0010 H   0  0  0  0  0  0  0  0  0  0  0  0
   29.3810    3.1360   -1.1570 H   0  0  0  0  0  0  0  0  0  0  0  0
   27.5070    3.5030    1.2220 H   0  0  0  0  0  0  0  0  0  0  0  0
   27.4810    2.1300    0.0900 H   0  0  0  0  0  0  0  0  0  0  0  0
   27.0020    3.6760   -1.7810 H   0  0  0  0  0  0  0  0  0  0  0  0
   27.0390    5.0540   -0.6550 H   0  0  0  0  0  0  0  0  0  0  0  0
   25.1110    4.0990    0.5890 H   0  0  0  0  0  0  0  0  0  0  0  0
   25.0820    2.7040   -0.5160 H   0  0  0  0  0  0  0  0  0  0  0  0
   24.7170    4.2440   -2.4560 H   0  0  0  0  0  0  0  0  0  0  0  0
   24.7580    5.6430   -1.3560 H   0  0  0  0  0  0  0  0  0  0  0  0
   22.6590    5.9470    0.3000 H   0  0  0  0  0  0  0  0  0  0  0  0
   19.2630    4.1230    0.6510 H   0  0  0  0  0  0  0  0  0  0  0  0
   20.1820    5.4790    1.3480 H   0  0  0  0  0  0  0  0  0  0  0  0
   19.8220    6.8050   -0.7100 H   0  0  0  0  0  0  0  0  0  0  0  0
   18.9530    5.4410   -1.4540 H   0  0  0  0  0  0  0  0  0  0  0  0
   17.1970    5.6090    0.2810 H   0  0  0  0  0  0  0  0  0  0  0  0
   18.0690    6.9660    1.0350 H   0  0  0  0  0  0  0  0  0  0  0  0
   17.0060    6.9310   -1.8250 H   0  0  0  0  0  0  0  0  0  0  0  0
   17.8220    8.2950   -1.0250 H   0  0  0  0  0  0  0  0  0  0  0  0
   15.9720    8.4190    0.6420 H   0  0  0  0  0  0  0  0  0  0  0  0
   15.1540    7.0610   -0.1670 H   0  0  0  0  0  0  0  0  0  0  0  0
   15.1780    8.3890   -2.3260 H   0  0  0  0  0  0  0  0  0  0  0  0
   15.8810    9.7630   -1.4380 H   0  0  0  0  0  0  0  0  0  0  0  0
   13.4770    8.4580   -0.4020 H   0  0  0  0  0  0  0  0  0  0  0  0
   13.4730   10.6610   -2.3790 H   0  0  0  0  0  0  0  0  0  0  0  0
   13.1820    8.9660   -2.8350 H   0  0  0  0  0  0  0  0  0  0  0  0
   11.3480    8.8440   -1.1180 H   0  0  0  0  0  0  0  0  0  0  0  0
   11.0170   10.1050   -2.3300 H   0  0  0  0  0  0  0  0  0  0  0  0
   11.9480   11.8240   -0.8500 H   0  0  0  0  0  0  0  0  0  0  0  0
   10.2250   10.2710    1.0070 H   0  0  0  0  0  0  0  0  0  0  0  0
    7.3170    8.3160    0.3860 H   0  0  0  0  0  0  0  0  0  0  0  0
   10.8830    4.2430    1.5600 H   0  0  0  0  0  0  0  0  0  0  0  0
    8.9390    3.0930    2.5500 H   0  0  0  0  0  0  0  0  0  0  0  0
    6.9270    4.3780    3.1780 H   0  0  0  0  0  0  0  0  0  0  0  0
    5.5720   10.0660    2.1430 H   0  0  0  0  0  0  0  0  0  0  0  0
    5.4170   12.5980    1.7180 H   0  0  0  0  0  0  0  0  0  0  0  0
   12.6600   11.3330    1.4540 H   0  0  0  0  0  0  0  0  0  0  0  0
   12.3540    9.5980    1.2020 H   0  0  0  0  0  0  0  0  0  0  0  0
   14.7810   10.1550    0.8480 H   0  0  0  0  0  0  0  0  0  0  0  0
   14.3150   11.2870   -0.4450 H   0  0  0  0  0  0  0  0  0  0  0  0
   40.0810    4.8830    3.1330 H   0  0  0  0  0  0  0  0  0  0  0  0
  1  2  2  0  0  0  0
  2  3  1  0  0  0  0
  2 64  1  0  0  0  0
  3  4  1  0  0  0  0
  3 65  1  0  0  0  0
  3 66  1  0  0  0  0
  4  5  1  0  0  0  0
  4 67  1  0  0  0  0
  4 68  1  0  0  0  0
  5  6  1  0  0  0  0
  5 62  1  0  0  0  0
  5 69  1  0  0  0  0
  6  7  1  0  0  0  0
  6 60  1  0  0  0  0
  7  8  2  0  0  0  0
  7  9  1  0  0  0  0
  9 10  1  0  0  0  0
  9 59  2  0  0  0  0
 10 11  2  0  0  0  0
 10 70  1  0  0  0  0
 11 12  1  0  0  0  0
 11 71  1  0  0  0  0
 12 13  2  0  0  0  0
 12 72  1  0  0  0  0
 13 14  1  0  0  0  0
 13 59  1  0  0  0  0
 14 15  1  0  0  0  0
 15 16  1  0  0  0  0
 15 73  1  0  0  0  0
 15 74  1  0  0  0  0
 16 17  1  0  0  0  0
 16 75  1  0  0  0  0
 16 76  1  0  0  0  0
 17 18  1  0  0  0  0
 17 77  1  0  0  0  0
 17 78  1  0  0  0  0
 18 19  1  0  0  0  0
 18 79  1  0  0  0  0
 18 80  1  0  0  0  0
 19 20  1  0  0  0  0
 19 81  1  0  0  0  0
 19 82  1  0  0  0  0
 20 21  1  0  0  0  0
 20 83  1  0  0  0  0
 20 84  1  0  0  0  0
 21 22  1  0  0  0  0
 21 85  1  0  0  0  0
 21 86  1  0  0  0  0
 22 23  1  0  0  0  0
 22 87  1  0  0  0  0
 22 88  1  0  0  0  0
 23 24  1  0  0  0  0
 23 58  1  0  0  0  0
 24 25  2  0  0  0  0
 24 89  1  0  0  0  0
 25 26  1  0  0  0  0
 25 57  1  0  0  0  0
 26 27  1  0  0  0  0
 26 90  1  0  0  0  0
 26 91  1  0  0  0  0
 27 28  1  0  0  0  0
 27 92  1  0  0  0  0
 27 93  1  0  0  0  0
 28 29  1  0  0  0  0
 28 94  1  0  0  0  0
 28 95  1  0  0  0  0
 29 30  1  0  0  0  0
 29 96  1  0  0  0  0
 29 97  1  0  0  0  0
 30 31  1  0  0  0  0
 30 98  1  0  0  0  0
 30 99  1  0  0  0  0
 31 32  1  0  0  0  0
 31100  1  0  0  0  0
 31101  1  0  0  0  0
 32 33  1  0  0  0  0
 32 56  1  0  0  0  0
 32102  1  0  0  0  0
 33 34  1  0  0  0  0
 33103  1  0  0  0  0
 33104  1  0  0  0  0
 34 35  1  0  0  0  0
 34105  1  0  0  0  0
 34106  1  0  0  0  0
 35 36  1  0  0  0  0
 35 55  1  0  0  0  0
 35107  1  0  0  0  0
 36 37  1  0  0  0  0
 36108  1  0  0  0  0
 37 38  2  0  0  0  0
 37 39  1  0  0  0  0
 39 40  1  0  0  0  0
 39 54  2  0  0  0  0
 40 41  1  0  0  0  0
 40 52  2  0  0  0  0
 41 42  1  0  0  0  0
 41109  1  0  0  0  0
 42 43  2  0  0  0  0
 42 44  1  0  0  0  0
 44 45  1  0  0  0  0
 44 50  2  0  0  0  0
 45 46  1  0  0  0  0
 45 47  2  0  0  0  0
 47 48  1  0  0  0  0
 47110  1  0  0  0  0
 48 49  2  0  0  0  0
 48111  1  0  0  0  0
 49 50  1  0  0  0  0
 49112  1  0  0  0  0
 50 51  1  0  0  0  0
 52 53  1  0  0  0  0
 52113  1  0  0  0  0
 53 54  1  0  0  0  0
 53114  1  0  0  0  0
 55 56  1  0  0  0  0
 55115  1  0  0  0  0
 55116  1  0  0  0  0
 56117  1  0  0  0  0
 56118  1  0  0  0  0
 57 58  2  0  0  0  0
 59 60  1  0  0  0  0
 60 61  2  0  0  0  0
 62 63  2  0  0  0  0
 62 64  1  0  0  0  0
 64119  1  0  0  0  0
M  CHG  1  32   1
M  END
>  <Compound ID>
3572

>  <Uniprot>
P50750

>  <Target>
CDK9

>  <E3 ligase>
CRBN

>  <IC50 (nM, Cellular activities)>
70/340/230

>  <Assay (Cellular activities, IC50)>
Cell cytotoxicity (IC50) was determined in MV4-11 cells after 48 h treatment/Post-WO IC50 was determined after 6 h treatment and a total incubation time of 48 h/No-WO IC50 was determined after 6 h treatment and a total incubation time of 48 h

>  <Article DOI>
10.1021/acsmedchemlett.3c00082

>  <Molecular Weight>
917.896

>  <Exact Mass>
916.35541

>  <XLogP3>
6.75

>  <Heavy Atom Count>
64

>  <Ring Count>
7

>  <Hydrogen Bond Acceptor Count>
12

>  <Hydrogen Bond Donor Count>
4

>  <Rotatable Bond Count>
22

>  <Topological Polar Surface Area>
213.61

>  <Molecular Formula>
C45H54Cl2N10O7

>  <InChI>
InChI=1S/C45H54Cl2N10O7/c46-32-15-12-16-33(47)39(32)42(60)50-34-27-48-53-40(34)43(61)49-29-20-24-55(25-21-29)22-8-5-3-7-13-30-28-56(54-52-30)23-9-4-1-2-6-10-26-64-36-17-11-14-31-38(36)45(63)57(44(31)62)35-18-19-37(58)51-41(35)59/h11-12,14-17,27-29,35H,1-10,13,18-26H2,(H,48,53)(H,49,61)(H,50,60)(H,51,58,59)

>  <InChI Key>
RFWQGGOBVSJKDT-UHFFFAOYSA-N

>  <Dmax (%)>
86.2

>  <DC50 (nM)>
70

>  <Assay (DC50/Dmax)>
Degradation of CDK9 in MOLM-13 cells

$$$$
3573
  MOE2018           3D

119125  0  0  1  0  0  0  0  0999 V2000
   36.6060  -13.0130    0.4480 O   0  0  0  0  0  0  0  0  0  0  0  0
   36.5500  -11.8110    0.4060 C   0  0  0  0  0  0  0  0  0  0  0  0
   37.0620  -10.9910   -0.7640 C   0  0  0  0  0  0  0  0  0  0  0  0
   36.0900   -9.8070   -0.9750 C   0  0  0  0  0  0  0  0  0  0  0  0
   36.1140   -8.9620    0.3260 C   0  0  1  0  0  0  0  0  0  0  0  0
   35.1070   -7.8980    0.1960 N   0  0  0  0  0  0  0  0  0  0  0  0
   35.4090   -6.5520    0.2100 C   0  0  0  0  0  0  0  0  0  0  0  0
   36.5590   -6.1420    0.2190 O   0  0  0  0  0  0  0  0  0  0  0  0
   34.1690   -5.8140    0.1930 C   0  0  0  0  0  0  0  0  0  0  0  0
   33.9180   -4.4410    0.1970 C   0  0  0  0  0  0  0  0  0  0  0  0
   32.5940   -3.9980    0.1700 C   0  0  0  0  0  0  0  0  0  0  0  0
   31.5400   -4.9180    0.1380 C   0  0  0  0  0  0  0  0  0  0  0  0
   31.8120   -6.2910    0.1330 C   0  0  0  0  0  0  0  0  0  0  0  0
   30.8100   -7.2230    0.0950 O   0  0  0  0  0  0  0  0  0  0  0  0
   29.4030   -6.9370   -0.0480 C   0  0  0  0  0  0  0  0  0  0  0  0
   28.7230   -8.3070   -0.0960 C   0  0  0  0  0  0  0  0  0  0  0  0
   27.2150   -8.1550   -0.3410 C   0  0  0  0  0  0  0  0  0  0  0  0
   26.5230   -9.5250   -0.3850 C   0  0  0  0  0  0  0  0  0  0  0  0
   25.0350   -9.3560   -0.7160 C   0  0  0  0  0  0  0  0  0  0  0  0
   24.3220  -10.7170   -0.7550 C   0  0  0  0  0  0  0  0  0  0  0  0
   22.8650  -10.4390   -1.1810 C   0  0  0  0  0  0  0  0  0  0  0  0
   22.1750  -11.7230   -1.2150 N   0  0  0  0  0  0  0  0  0  0  0  0
   21.3940  -12.2370   -0.2660 C   0  0  0  0  0  0  0  0  0  0  0  0
   20.9700  -13.4150   -0.7580 C   0  0  0  0  0  0  0  0  0  0  0  0
   20.0230  -14.3830   -0.0860 C   0  0  0  0  0  0  0  0  0  0  0  0
   18.6070  -13.8910   -0.4260 C   0  0  0  0  0  0  0  0  0  0  0  0
   17.5240  -14.8130    0.1550 C   0  0  0  0  0  0  0  0  0  0  0  0
   16.1350  -14.2630   -0.1970 C   0  0  0  0  0  0  0  0  0  0  0  0
   15.0190  -15.1780    0.3250 C   0  0  0  0  0  0  0  0  0  0  0  0
   13.6540  -14.5670   -0.0300 C   0  0  0  0  0  0  0  0  0  0  0  0
   12.5780  -15.5410    0.4710 C   0  0  0  0  0  0  0  0  0  0  0  0
   11.3040  -14.8950    0.1120 N   0  3  0  0  0  0  0  0  0  0  0  0
   10.8680  -14.0370    1.2400 C   0  0  0  0  0  0  0  0  0  0  0  0
    9.6880  -13.2200    0.6970 C   0  0  0  0  0  0  0  0  0  0  0  0
    8.5870  -14.2190    0.3270 C   0  0  0  0  0  0  0  0  0  0  0  0
    7.5280  -13.4520   -0.2930 N   0  0  0  0  0  0  0  0  0  0  0  0
    6.2110  -13.8260   -0.3130 C   0  0  0  0  0  0  0  0  0  0  0  0
    5.9170  -14.8930    0.2370 O   0  0  0  0  0  0  0  0  0  0  0  0
    5.2730  -12.9310   -0.9870 C   0  0  0  0  0  0  0  0  0  0  0  0
    3.8970  -13.1470   -1.1340 C   0  0  0  0  0  0  0  0  0  0  0  0
    3.1960  -14.2990   -0.6440 N   0  0  0  0  0  0  0  0  0  0  0  0
    1.8730  -14.6360   -0.8350 C   0  0  0  0  0  0  0  0  0  0  0  0
    1.1510  -13.8960   -1.4960 O   0  0  0  0  0  0  0  0  0  0  0  0
    1.3990  -15.8660   -0.2370 C   0  0  0  0  0  0  0  0  0  0  0  0
    1.8430  -17.1170   -0.7020 C   0  0  0  0  0  0  0  0  0  0  0  0
    3.0020  -17.2430   -1.9930 Cl  0  0  0  0  0  0  0  0  0  0  0  0
    1.3590  -18.3000   -0.1400 C   0  0  0  0  0  0  0  0  0  0  0  0
    0.4290  -18.2510    0.8930 C   0  0  0  0  0  0  0  0  0  0  0  0
   -0.0160  -17.0240    1.3730 C   0  0  0  0  0  0  0  0  0  0  0  0
    0.4690  -15.8380    0.8180 C   0  0  0  0  0  0  0  0  0  0  0  0
   -0.0920  -14.3350    1.4880 Cl  0  0  0  0  0  0  0  0  0  0  0  0
    3.3790  -12.0980   -1.8050 C   0  0  0  0  0  0  0  0  0  0  0  0
    4.4330  -11.2830   -2.0530 N   0  0  0  0  0  0  0  0  0  0  0  0
    5.6030  -11.7690   -1.5640 N   0  0  0  0  0  0  0  0  0  0  0  0
    9.0830  -15.2290   -0.7150 C   0  0  0  0  0  0  0  0  0  0  0  0
   10.2900  -15.9500   -0.1000 C   0  0  0  0  0  0  0  0  0  0  0  0
   21.4990  -13.6070   -1.9830 N   0  0  0  0  0  0  0  0  0  0  0  0
   22.2410  -12.5610   -2.2580 N   0  0  0  0  0  0  0  0  0  0  0  0
   33.1370   -6.7330    0.1650 C   0  0  0  0  0  0  0  0  0  0  0  0
   33.7270   -8.0500    0.1660 C   0  0  0  0  0  0  0  0  0  0  0  0
   33.2080   -9.1570    0.1260 O   0  0  0  0  0  0  0  0  0  0  0  0
   35.7960   -9.8460    1.5440 C   0  0  0  0  0  0  0  0  0  0  0  0
   35.3960   -9.4250    2.6070 O   0  0  0  0  0  0  0  0  0  0  0  0
   36.0200  -11.1870    1.4880 N   0  0  0  0  0  0  0  0  0  0  0  0
   38.0610  -10.6150   -0.5440 H   0  0  0  0  0  0  0  0  0  0  0  0
   37.0950  -11.6080   -1.6620 H   0  0  0  0  0  0  0  0  0  0  0  0
   35.0820  -10.1790   -1.1610 H   0  0  0  0  0  0  0  0  0  0  0  0
   36.4160   -9.2010   -1.8210 H   0  0  0  0  0  0  0  0  0  0  0  0
   37.1040   -8.5300    0.4730 H   0  0  0  0  0  0  0  0  0  0  0  0
   34.7340   -3.7330    0.2210 H   0  0  0  0  0  0  0  0  0  0  0  0
   32.3820   -2.9390    0.1740 H   0  0  0  0  0  0  0  0  0  0  0  0
   30.5180   -4.5690    0.1170 H   0  0  0  0  0  0  0  0  0  0  0  0
   29.0410   -6.3590    0.8030 H   0  0  0  0  0  0  0  0  0  0  0  0
   29.2160   -6.3840   -0.9690 H   0  0  0  0  0  0  0  0  0  0  0  0
   29.1590   -8.8950   -0.9030 H   0  0  0  0  0  0  0  0  0  0  0  0
   28.8820   -8.8190    0.8530 H   0  0  0  0  0  0  0  0  0  0  0  0
   26.7810   -7.5620    0.4640 H   0  0  0  0  0  0  0  0  0  0  0  0
   27.0580   -7.6460   -1.2920 H   0  0  0  0  0  0  0  0  0  0  0  0
   26.9940  -10.1420   -1.1500 H   0  0  0  0  0  0  0  0  0  0  0  0
   26.6230  -10.0100    0.5860 H   0  0  0  0  0  0  0  0  0  0  0  0
   24.9390   -8.8750   -1.6890 H   0  0  0  0  0  0  0  0  0  0  0  0
   24.5690   -8.7310    0.0460 H   0  0  0  0  0  0  0  0  0  0  0  0
   24.3440  -11.1810    0.2310 H   0  0  0  0  0  0  0  0  0  0  0  0
   24.8060  -11.3750   -1.4770 H   0  0  0  0  0  0  0  0  0  0  0  0
   22.8460   -9.9780   -2.1690 H   0  0  0  0  0  0  0  0  0  0  0  0
   22.3850   -9.7760   -0.4610 H   0  0  0  0  0  0  0  0  0  0  0  0
   21.1530  -11.8010    0.6920 H   0  0  0  0  0  0  0  0  0  0  0  0
   20.1760  -15.3920   -0.4700 H   0  0  0  0  0  0  0  0  0  0  0  0
   20.1780  -14.3770    0.9930 H   0  0  0  0  0  0  0  0  0  0  0  0
   18.4740  -12.8900   -0.0160 H   0  0  0  0  0  0  0  0  0  0  0  0
   18.4970  -13.8570   -1.5100 H   0  0  0  0  0  0  0  0  0  0  0  0
   17.6350  -15.8130   -0.2650 H   0  0  0  0  0  0  0  0  0  0  0  0
   17.6310  -14.8600    1.2390 H   0  0  0  0  0  0  0  0  0  0  0  0
   16.0500  -14.1830   -1.2810 H   0  0  0  0  0  0  0  0  0  0  0  0
   16.0210  -13.2750    0.2500 H   0  0  0  0  0  0  0  0  0  0  0  0
   15.1040  -15.2750    1.4070 H   0  0  0  0  0  0  0  0  0  0  0  0
   15.1090  -16.1620   -0.1360 H   0  0  0  0  0  0  0  0  0  0  0  0
   13.5700  -14.4410   -1.1090 H   0  0  0  0  0  0  0  0  0  0  0  0
   13.5390  -13.6000    0.4590 H   0  0  0  0  0  0  0  0  0  0  0  0
   12.6520  -15.6750    1.5500 H   0  0  0  0  0  0  0  0  0  0  0  0
   12.6730  -16.5080   -0.0230 H   0  0  0  0  0  0  0  0  0  0  0  0
   11.4150  -14.3390   -0.7230 H   0  0  0  0  0  0  0  0  0  0  0  0
   10.5520  -14.6490    2.0850 H   0  0  0  0  0  0  0  0  0  0  0  0
   11.6770  -13.3770    1.5520 H   0  0  0  0  0  0  0  0  0  0  0  0
    9.9960  -12.6580   -0.1850 H   0  0  0  0  0  0  0  0  0  0  0  0
    9.3270  -12.5300    1.4600 H   0  0  0  0  0  0  0  0  0  0  0  0
    8.2680  -14.7580    1.2190 H   0  0  0  0  0  0  0  0  0  0  0  0
    7.7770  -12.5820   -0.7410 H   0  0  0  0  0  0  0  0  0  0  0  0
    3.7400  -14.9440   -0.0890 H   0  0  0  0  0  0  0  0  0  0  0  0
    1.7070  -19.2540   -0.5080 H   0  0  0  0  0  0  0  0  0  0  0  0
    0.0520  -19.1670    1.3230 H   0  0  0  0  0  0  0  0  0  0  0  0
   -0.7370  -16.9880    2.1760 H   0  0  0  0  0  0  0  0  0  0  0  0
    2.3480  -11.9410   -2.0840 H   0  0  0  0  0  0  0  0  0  0  0  0
    4.3560  -10.4070   -2.5490 H   0  0  0  0  0  0  0  0  0  0  0  0
    8.2960  -15.9470   -0.9460 H   0  0  0  0  0  0  0  0  0  0  0  0
    9.3810  -14.7110   -1.6270 H   0  0  0  0  0  0  0  0  0  0  0  0
   10.6680  -16.7120   -0.7810 H   0  0  0  0  0  0  0  0  0  0  0  0
   10.0160  -16.4130    0.8480 H   0  0  0  0  0  0  0  0  0  0  0  0
   35.7790  -11.7470    2.2930 H   0  0  0  0  0  0  0  0  0  0  0  0
  1  2  2  0  0  0  0
  2  3  1  0  0  0  0
  2 64  1  0  0  0  0
  3  4  1  0  0  0  0
  3 65  1  0  0  0  0
  3 66  1  0  0  0  0
  4  5  1  0  0  0  0
  4 67  1  0  0  0  0
  4 68  1  0  0  0  0
  5  6  1  0  0  0  0
  5 62  1  0  0  0  0
  5 69  1  0  0  0  0
  6  7  1  0  0  0  0
  6 60  1  0  0  0  0
  7  8  2  0  0  0  0
  7  9  1  0  0  0  0
  9 10  1  0  0  0  0
  9 59  2  0  0  0  0
 10 11  2  0  0  0  0
 10 70  1  0  0  0  0
 11 12  1  0  0  0  0
 11 71  1  0  0  0  0
 12 13  2  0  0  0  0
 12 72  1  0  0  0  0
 13 14  1  0  0  0  0
 13 59  1  0  0  0  0
 14 15  1  0  0  0  0
 15 16  1  0  0  0  0
 15 73  1  0  0  0  0
 15 74  1  0  0  0  0
 16 17  1  0  0  0  0
 16 75  1  0  0  0  0
 16 76  1  0  0  0  0
 17 18  1  0  0  0  0
 17 77  1  0  0  0  0
 17 78  1  0  0  0  0
 18 19  1  0  0  0  0
 18 79  1  0  0  0  0
 18 80  1  0  0  0  0
 19 20  1  0  0  0  0
 19 81  1  0  0  0  0
 19 82  1  0  0  0  0
 20 21  1  0  0  0  0
 20 83  1  0  0  0  0
 20 84  1  0  0  0  0
 21 22  1  0  0  0  0
 21 85  1  0  0  0  0
 21 86  1  0  0  0  0
 22 23  1  0  0  0  0
 22 58  1  0  0  0  0
 23 24  2  0  0  0  0
 23 87  1  0  0  0  0
 24 25  1  0  0  0  0
 24 57  1  0  0  0  0
 25 26  1  0  0  0  0
 25 88  1  0  0  0  0
 25 89  1  0  0  0  0
 26 27  1  0  0  0  0
 26 90  1  0  0  0  0
 26 91  1  0  0  0  0
 27 28  1  0  0  0  0
 27 92  1  0  0  0  0
 27 93  1  0  0  0  0
 28 29  1  0  0  0  0
 28 94  1  0  0  0  0
 28 95  1  0  0  0  0
 29 30  1  0  0  0  0
 29 96  1  0  0  0  0
 29 97  1  0  0  0  0
 30 31  1  0  0  0  0
 30 98  1  0  0  0  0
 30 99  1  0  0  0  0
 31 32  1  0  0  0  0
 31100  1  0  0  0  0
 31101  1  0  0  0  0
 32 33  1  0  0  0  0
 32 56  1  0  0  0  0
 32102  1  0  0  0  0
 33 34  1  0  0  0  0
 33103  1  0  0  0  0
 33104  1  0  0  0  0
 34 35  1  0  0  0  0
 34105  1  0  0  0  0
 34106  1  0  0  0  0
 35 36  1  0  0  0  0
 35 55  1  0  0  0  0
 35107  1  0  0  0  0
 36 37  1  0  0  0  0
 36108  1  0  0  0  0
 37 38  2  0  0  0  0
 37 39  1  0  0  0  0
 39 40  1  0  0  0  0
 39 54  2  0  0  0  0
 40 41  1  0  0  0  0
 40 52  2  0  0  0  0
 41 42  1  0  0  0  0
 41109  1  0  0  0  0
 42 43  2  0  0  0  0
 42 44  1  0  0  0  0
 44 45  1  0  0  0  0
 44 50  2  0  0  0  0
 45 46  1  0  0  0  0
 45 47  2  0  0  0  0
 47 48  1  0  0  0  0
 47110  1  0  0  0  0
 48 49  2  0  0  0  0
 48111  1  0  0  0  0
 49 50  1  0  0  0  0
 49112  1  0  0  0  0
 50 51  1  0  0  0  0
 52 53  1  0  0  0  0
 52113  1  0  0  0  0
 53 54  1  0  0  0  0
 53114  1  0  0  0  0
 55 56  1  0  0  0  0
 55115  1  0  0  0  0
 55116  1  0  0  0  0
 56117  1  0  0  0  0
 56118  1  0  0  0  0
 57 58  2  0  0  0  0
 59 60  1  0  0  0  0
 60 61  2  0  0  0  0
 62 63  2  0  0  0  0
 62 64  1  0  0  0  0
 64119  1  0  0  0  0
M  CHG  1  32   1
M  END
>  <Compound ID>
3573

>  <Uniprot>
P50750

>  <Target>
CDK9

>  <E3 ligase>
CRBN

>  <IC50 (nM, Cellular activities)>
60/110/90

>  <Assay (Cellular activities, IC50)>
Cell cytotoxicity (IC50) was determined in MV4-11 cells after 48 h treatment/Post-WO IC50 was determined after 6 h treatment and a total incubation time of 48 h/No-WO IC50 was determined after 6 h treatment and a total incubation time of 48 h

>  <Article DOI>
10.1021/acsmedchemlett.3c00082

>  <Molecular Weight>
917.896

>  <Exact Mass>
916.35541

>  <XLogP3>
6.75

>  <Heavy Atom Count>
64

>  <Ring Count>
7

>  <Hydrogen Bond Acceptor Count>
12

>  <Hydrogen Bond Donor Count>
4

>  <Rotatable Bond Count>
22

>  <Topological Polar Surface Area>
213.61

>  <Molecular Formula>
C45H54Cl2N10O7

>  <InChI>
InChI=1S/C45H54Cl2N10O7/c46-32-15-12-16-33(47)39(32)42(60)50-34-27-48-53-40(34)43(61)49-29-20-24-55(25-21-29)22-8-4-1-3-7-13-30-28-56(54-52-30)23-9-5-2-6-10-26-64-36-17-11-14-31-38(36)45(63)57(44(31)62)35-18-19-37(58)51-41(35)59/h11-12,14-17,27-29,35H,1-10,13,18-26H2,(H,48,53)(H,49,61)(H,50,60)(H,51,58,59)

>  <InChI Key>
UJUPYASGRVZCKP-UHFFFAOYSA-N

>  <Dmax (%)>
78

>  <DC50 (nM)>
60

>  <Assay (DC50/Dmax)>
Degradation of CDK9 in MOLM-13 cells

$$$$
3574
  MOE2018           3D

119125  0  0  1  0  0  0  0  0999 V2000
   37.8850  -14.5250    0.3470 O   0  0  0  0  0  0  0  0  0  0  0  0
   38.1530  -13.3660    0.1640 C   0  0  0  0  0  0  0  0  0  0  0  0
   38.6910  -12.8300   -1.1500 C   0  0  0  0  0  0  0  0  0  0  0  0
   38.0600  -11.4390   -1.3900 C   0  0  0  0  0  0  0  0  0  0  0  0
   38.5080  -10.5300   -0.2150 C   0  0  1  0  0  0  0  0  0  0  0  0
   37.8290   -9.2340   -0.3560 N   0  0  0  0  0  0  0  0  0  0  0  0
   38.4930   -8.0360   -0.5270 C   0  0  0  0  0  0  0  0  0  0  0  0
   39.7010   -7.9800   -0.7010 O   0  0  0  0  0  0  0  0  0  0  0  0
   37.5210   -6.9720   -0.4710 C   0  0  0  0  0  0  0  0  0  0  0  0
   37.6650   -5.5880   -0.5830 C   0  0  0  0  0  0  0  0  0  0  0  0
   36.5290   -4.7820   -0.4890 C   0  0  0  0  0  0  0  0  0  0  0  0
   35.2680   -5.3550   -0.2870 C   0  0  0  0  0  0  0  0  0  0  0  0
   35.1440   -6.7450   -0.1780 C   0  0  0  0  0  0  0  0  0  0  0  0
   33.9310   -7.3470    0.0180 O   0  0  0  0  0  0  0  0  0  0  0  0
   32.6640   -6.6780    0.1760 C   0  0  0  0  0  0  0  0  0  0  0  0
   31.6610   -7.8080    0.4230 C   0  0  0  0  0  0  0  0  0  0  0  0
   30.2390   -7.2510    0.5930 C   0  0  0  0  0  0  0  0  0  0  0  0
   29.3120   -8.4540    0.8740 C   0  0  0  0  0  0  0  0  0  0  0  0
   27.9700   -7.9070    1.0320 N   0  0  0  0  0  0  0  0  0  0  0  0
   27.0420   -7.7700    0.0840 C   0  0  0  0  0  0  0  0  0  0  0  0
   25.9960   -7.1870    0.6970 C   0  0  0  0  0  0  0  0  0  0  0  0
   24.6760   -6.8090    0.0640 C   0  0  0  0  0  0  0  0  0  0  0  0
   23.6570   -7.8820    0.4800 C   0  0  0  0  0  0  0  0  0  0  0  0
   22.2640   -7.5540   -0.0750 C   0  0  0  0  0  0  0  0  0  0  0  0
   21.2340   -8.5950    0.3860 C   0  0  0  0  0  0  0  0  0  0  0  0
   19.8350   -8.2150   -0.1160 C   0  0  0  0  0  0  0  0  0  0  0  0
   18.7860   -9.2290    0.3610 C   0  0  0  0  0  0  0  0  0  0  0  0
   17.3880   -8.7900   -0.0930 C   0  0  0  0  0  0  0  0  0  0  0  0
   16.3150   -9.7810    0.3800 C   0  0  0  0  0  0  0  0  0  0  0  0
   14.9290   -9.2780   -0.0490 C   0  0  0  0  0  0  0  0  0  0  0  0
   13.9070  -10.3140    0.4420 C   0  0  0  0  0  0  0  0  0  0  0  0
   12.6010   -9.7890    0.0040 N   0  3  0  0  0  0  0  0  0  0  0  0
   12.0720   -8.8860    1.0540 C   0  0  0  0  0  0  0  0  0  0  0  0
   10.8470   -8.2070    0.4290 C   0  0  0  0  0  0  0  0  0  0  0  0
    9.8350   -9.3150    0.1260 C   0  0  0  0  0  0  0  0  0  0  0  0
    8.7280   -8.6890   -0.5640 N   0  0  0  0  0  0  0  0  0  0  0  0
    7.4290   -9.1130   -0.4830 C   0  0  0  0  0  0  0  0  0  0  0  0
    7.1940  -10.0750    0.2560 O   0  0  0  0  0  0  0  0  0  0  0  0
    6.4380   -8.3950   -1.2810 C   0  0  0  0  0  0  0  0  0  0  0  0
    5.0670   -8.6780   -1.3270 C   0  0  0  0  0  0  0  0  0  0  0  0
    4.4290   -9.7300   -0.5900 N   0  0  0  0  0  0  0  0  0  0  0  0
    3.1120  -10.1340   -0.6440 C   0  0  0  0  0  0  0  0  0  0  0  0
    2.3380   -9.5620   -1.4040 O   0  0  0  0  0  0  0  0  0  0  0  0
    2.7110  -11.2280    0.2140 C   0  0  0  0  0  0  0  0  0  0  0  0
    3.1840  -12.5350   -0.0060 C   0  0  0  0  0  0  0  0  0  0  0  0
    4.2900  -12.8910   -1.3000 Cl  0  0  0  0  0  0  0  0  0  0  0  0
    2.7720  -13.5890    0.8110 C   0  0  0  0  0  0  0  0  0  0  0  0
    1.8850  -13.3550    1.8560 C   0  0  0  0  0  0  0  0  0  0  0  0
    1.4100  -12.0700    2.0940 C   0  0  0  0  0  0  0  0  0  0  0  0
    1.8240  -11.0110    1.2840 C   0  0  0  0  0  0  0  0  0  0  0  0
    1.2300   -9.4200    1.6570 Cl  0  0  0  0  0  0  0  0  0  0  0  0
    4.4870   -7.7980   -2.1690 C   0  0  0  0  0  0  0  0  0  0  0  0
    5.5000   -7.0150   -2.6140 N   0  0  0  0  0  0  0  0  0  0  0  0
    6.7040   -7.3600   -2.0860 N   0  0  0  0  0  0  0  0  0  0  0  0
   10.4260  -10.3570   -0.8310 C   0  0  0  0  0  0  0  0  0  0  0  0
   11.6750  -10.9330   -0.1490 C   0  0  0  0  0  0  0  0  0  0  0  0
   26.2960   -6.9780    1.9960 N   0  0  0  0  0  0  0  0  0  0  0  0
   27.5140   -7.4220    2.1940 N   0  0  0  0  0  0  0  0  0  0  0  0
   36.2820   -7.5500   -0.2710 C   0  0  0  0  0  0  0  0  0  0  0  0
   36.4730   -8.9780   -0.2000 C   0  0  0  0  0  0  0  0  0  0  0  0
   35.6630   -9.8830   -0.0550 O   0  0  0  0  0  0  0  0  0  0  0  0
   38.1370  -11.1770    1.1300 C   0  0  0  0  0  0  0  0  0  0  0  0
   38.0190  -10.5690    2.1710 O   0  0  0  0  0  0  0  0  0  0  0  0
   37.9770  -12.5260    1.2150 N   0  0  0  0  0  0  0  0  0  0  0  0
   39.7760  -12.7400   -1.0970 H   0  0  0  0  0  0  0  0  0  0  0  0
   38.4220  -13.5040   -1.9630 H   0  0  0  0  0  0  0  0  0  0  0  0
   36.9730  -11.5190   -1.4080 H   0  0  0  0  0  0  0  0  0  0  0  0
   38.4100  -11.0270   -2.3370 H   0  0  0  0  0  0  0  0  0  0  0  0
   39.5890  -10.3940   -0.2380 H   0  0  0  0  0  0  0  0  0  0  0  0
   38.6390   -5.1480   -0.7400 H   0  0  0  0  0  0  0  0  0  0  0  0
   36.6240   -3.7090   -0.5730 H   0  0  0  0  0  0  0  0  0  0  0  0
   34.3930   -4.7260   -0.2150 H   0  0  0  0  0  0  0  0  0  0  0  0
   32.6920   -5.9960    1.0250 H   0  0  0  0  0  0  0  0  0  0  0  0
   32.4060   -6.1240   -0.7270 H   0  0  0  0  0  0  0  0  0  0  0  0
   31.6770   -8.4920   -0.4260 H   0  0  0  0  0  0  0  0  0  0  0  0
   31.9440   -8.3450    1.3280 H   0  0  0  0  0  0  0  0  0  0  0  0
   29.9250   -6.7420   -0.3180 H   0  0  0  0  0  0  0  0  0  0  0  0
   30.2080   -6.5520    1.4290 H   0  0  0  0  0  0  0  0  0  0  0  0
   29.6220   -8.9640    1.7860 H   0  0  0  0  0  0  0  0  0  0  0  0
   29.3380   -9.1540    0.0390 H   0  0  0  0  0  0  0  0  0  0  0  0
   27.1150   -8.0640   -0.9530 H   0  0  0  0  0  0  0  0  0  0  0  0
   24.3560   -5.8300    0.4210 H   0  0  0  0  0  0  0  0  0  0  0  0
   24.7740   -6.7860   -1.0210 H   0  0  0  0  0  0  0  0  0  0  0  0
   23.9780   -8.8490    0.0920 H   0  0  0  0  0  0  0  0  0  0  0  0
   23.6070   -7.9250    1.5680 H   0  0  0  0  0  0  0  0  0  0  0  0
   21.9610   -6.5690    0.2810 H   0  0  0  0  0  0  0  0  0  0  0  0
   22.3050   -7.5500   -1.1640 H   0  0  0  0  0  0  0  0  0  0  0  0
   21.5060   -9.5720   -0.0130 H   0  0  0  0  0  0  0  0  0  0  0  0
   21.2270   -8.6360    1.4750 H   0  0  0  0  0  0  0  0  0  0  0  0
   19.5750   -7.2270    0.2650 H   0  0  0  0  0  0  0  0  0  0  0  0
   19.8410   -8.1940   -1.2060 H   0  0  0  0  0  0  0  0  0  0  0  0
   18.8100   -9.2890    1.4490 H   0  0  0  0  0  0  0  0  0  0  0  0
   19.0120  -10.2080   -0.0620 H   0  0  0  0  0  0  0  0  0  0  0  0
   17.3680   -8.7370   -1.1820 H   0  0  0  0  0  0  0  0  0  0  0  0
   17.1720   -7.8060    0.3230 H   0  0  0  0  0  0  0  0  0  0  0  0
   16.3510   -9.8650    1.4660 H   0  0  0  0  0  0  0  0  0  0  0  0
   16.5010  -10.7580   -0.0660 H   0  0  0  0  0  0  0  0  0  0  0  0
   14.8820   -9.1900   -1.1340 H   0  0  0  0  0  0  0  0  0  0  0  0
   14.7260   -8.3070    0.4040 H   0  0  0  0  0  0  0  0  0  0  0  0
   13.9410  -10.4030    1.5280 H   0  0  0  0  0  0  0  0  0  0  0  0
   14.1000  -11.2880   -0.0080 H   0  0  0  0  0  0  0  0  0  0  0  0
   12.6940   -9.2870   -0.8670 H   0  0  0  0  0  0  0  0  0  0  0  0
   11.7830   -9.4560    1.9370 H   0  0  0  0  0  0  0  0  0  0  0  0
   12.8200   -8.1430    1.3300 H   0  0  0  0  0  0  0  0  0  0  0  0
   11.1300   -7.6950   -0.4910 H   0  0  0  0  0  0  0  0  0  0  0  0
   10.4190   -7.4880    1.1280 H   0  0  0  0  0  0  0  0  0  0  0  0
    9.5450   -9.8060    1.0550 H   0  0  0  0  0  0  0  0  0  0  0  0
    8.9270   -7.8860   -1.1440 H   0  0  0  0  0  0  0  0  0  0  0  0
    5.0200  -10.2400    0.0510 H   0  0  0  0  0  0  0  0  0  0  0  0
    3.1430  -14.5870    0.6310 H   0  0  0  0  0  0  0  0  0  0  0  0
    1.5640  -14.1730    2.4840 H   0  0  0  0  0  0  0  0  0  0  0  0
    0.7210  -11.8910    2.9060 H   0  0  0  0  0  0  0  0  0  0  0  0
    3.4420   -7.7320   -2.4320 H   0  0  0  0  0  0  0  0  0  0  0  0
    5.3740   -6.2560   -3.2680 H   0  0  0  0  0  0  0  0  0  0  0  0
    9.7010  -11.1500   -1.0160 H   0  0  0  0  0  0  0  0  0  0  0  0
   10.6980   -9.8860   -1.7760 H   0  0  0  0  0  0  0  0  0  0  0  0
   12.1250  -11.7080   -0.7690 H   0  0  0  0  0  0  0  0  0  0  0  0
   11.4200  -11.3500    0.8250 H   0  0  0  0  0  0  0  0  0  0  0  0
   37.7140  -12.9220    2.1060 H   0  0  0  0  0  0  0  0  0  0  0  0
  1  2  2  0  0  0  0
  2  3  1  0  0  0  0
  2 64  1  0  0  0  0
  3  4  1  0  0  0  0
  3 65  1  0  0  0  0
  3 66  1  0  0  0  0
  4  5  1  0  0  0  0
  4 67  1  0  0  0  0
  4 68  1  0  0  0  0
  5  6  1  0  0  0  0
  5 62  1  0  0  0  0
  5 69  1  0  0  0  0
  6  7  1  0  0  0  0
  6 60  1  0  0  0  0
  7  8  2  0  0  0  0
  7  9  1  0  0  0  0
  9 10  1  0  0  0  0
  9 59  2  0  0  0  0
 10 11  2  0  0  0  0
 10 70  1  0  0  0  0
 11 12  1  0  0  0  0
 11 71  1  0  0  0  0
 12 13  2  0  0  0  0
 12 72  1  0  0  0  0
 13 14  1  0  0  0  0
 13 59  1  0  0  0  0
 14 15  1  0  0  0  0
 15 16  1  0  0  0  0
 15 73  1  0  0  0  0
 15 74  1  0  0  0  0
 16 17  1  0  0  0  0
 16 75  1  0  0  0  0
 16 76  1  0  0  0  0
 17 18  1  0  0  0  0
 17 77  1  0  0  0  0
 17 78  1  0  0  0  0
 18 19  1  0  0  0  0
 18 79  1  0  0  0  0
 18 80  1  0  0  0  0
 19 20  1  0  0  0  0
 19 58  1  0  0  0  0
 20 21  2  0  0  0  0
 20 81  1  0  0  0  0
 21 22  1  0  0  0  0
 21 57  1  0  0  0  0
 22 23  1  0  0  0  0
 22 82  1  0  0  0  0
 22 83  1  0  0  0  0
 23 24  1  0  0  0  0
 23 84  1  0  0  0  0
 23 85  1  0  0  0  0
 24 25  1  0  0  0  0
 24 86  1  0  0  0  0
 24 87  1  0  0  0  0
 25 26  1  0  0  0  0
 25 88  1  0  0  0  0
 25 89  1  0  0  0  0
 26 27  1  0  0  0  0
 26 90  1  0  0  0  0
 26 91  1  0  0  0  0
 27 28  1  0  0  0  0
 27 92  1  0  0  0  0
 27 93  1  0  0  0  0
 28 29  1  0  0  0  0
 28 94  1  0  0  0  0
 28 95  1  0  0  0  0
 29 30  1  0  0  0  0
 29 96  1  0  0  0  0
 29 97  1  0  0  0  0
 30 31  1  0  0  0  0
 30 98  1  0  0  0  0
 30 99  1  0  0  0  0
 31 32  1  0  0  0  0
 31100  1  0  0  0  0
 31101  1  0  0  0  0
 32 33  1  0  0  0  0
 32 56  1  0  0  0  0
 32102  1  0  0  0  0
 33 34  1  0  0  0  0
 33103  1  0  0  0  0
 33104  1  0  0  0  0
 34 35  1  0  0  0  0
 34105  1  0  0  0  0
 34106  1  0  0  0  0
 35 36  1  0  0  0  0
 35 55  1  0  0  0  0
 35107  1  0  0  0  0
 36 37  1  0  0  0  0
 36108  1  0  0  0  0
 37 38  2  0  0  0  0
 37 39  1  0  0  0  0
 39 40  1  0  0  0  0
 39 54  2  0  0  0  0
 40 41  1  0  0  0  0
 40 52  2  0  0  0  0
 41 42  1  0  0  0  0
 41109  1  0  0  0  0
 42 43  2  0  0  0  0
 42 44  1  0  0  0  0
 44 45  1  0  0  0  0
 44 50  2  0  0  0  0
 45 46  1  0  0  0  0
 45 47  2  0  0  0  0
 47 48  1  0  0  0  0
 47110  1  0  0  0  0
 48 49  2  0  0  0  0
 48111  1  0  0  0  0
 49 50  1  0  0  0  0
 49112  1  0  0  0  0
 50 51  1  0  0  0  0
 52 53  1  0  0  0  0
 52113  1  0  0  0  0
 53 54  1  0  0  0  0
 53114  1  0  0  0  0
 55 56  1  0  0  0  0
 55115  1  0  0  0  0
 55116  1  0  0  0  0
 56117  1  0  0  0  0
 56118  1  0  0  0  0
 57 58  2  0  0  0  0
 59 60  1  0  0  0  0
 60 61  2  0  0  0  0
 62 63  2  0  0  0  0
 62 64  1  0  0  0  0
 64119  1  0  0  0  0
M  CHG  1  32   1
M  END
>  <Compound ID>
3574

>  <Uniprot>
P50750

>  <Target>
CDK9

>  <E3 ligase>
CRBN

>  <IC50 (nM, Cellular activities)>
10/20/20

>  <Assay (Cellular activities, IC50)>
Cell cytotoxicity (IC50) was determined in MV4-11 cells after 48 h treatment/Post-WO IC50 was determined after 6 h treatment and a total incubation time of 48 h/No-WO IC50 was determined after 6 h treatment and a total incubation time of 48 h

>  <Article DOI>
10.1021/acsmedchemlett.3c00082

>  <Molecular Weight>
917.896

>  <Exact Mass>
916.35541

>  <XLogP3>
7.1199999

>  <Heavy Atom Count>
64

>  <Ring Count>
7

>  <Hydrogen Bond Acceptor Count>
12

>  <Hydrogen Bond Donor Count>
4

>  <Rotatable Bond Count>
22

>  <Topological Polar Surface Area>
213.61

>  <Molecular Formula>
C45H54Cl2N10O7

>  <InChI>
InChI=1S/C45H54Cl2N10O7/c46-32-15-12-16-33(47)39(32)42(60)50-34-27-48-53-40(34)43(61)49-29-20-24-55(25-21-29)22-8-6-4-2-1-3-5-7-13-30-28-56(54-52-30)23-9-10-26-64-36-17-11-14-31-38(36)45(63)57(44(31)62)35-18-19-37(58)51-41(35)59/h11-12,14-17,27-29,35H,1-10,13,18-26H2,(H,48,53)(H,49,61)(H,50,60)(H,51,58,59)

>  <InChI Key>
CSNPVEIUSQQSBW-UHFFFAOYSA-N

>  <Dmax (%)>
88.6

>  <DC50 (nM)>
40

>  <Assay (DC50/Dmax)>
Degradation of CDK9 in MOLM-13 cells

$$$$
3575
  MOE2018           3D

113119  0  0  1  0  0  0  0  0999 V2000
   20.6120   21.1160    0.6160 O   0  0  0  0  0  0  0  0  0  0  0  0
   21.5270   20.3590    0.4140 C   0  0  0  0  0  0  0  0  0  0  0  0
   22.6200   20.0790    1.4280 C   0  0  0  0  0  0  0  0  0  0  0  0
   22.9850   18.5800    1.3320 C   0  0  0  0  0  0  0  0  0  0  0  0
   23.5100   18.3320   -0.1070 C   0  0  1  0  0  0  0  0  0  0  0  0
   23.7540   16.8900   -0.2630 N   0  0  0  0  0  0  0  0  0  0  0  0
   24.9890   16.3490   -0.5560 C   0  0  0  0  0  0  0  0  0  0  0  0
   26.0070   17.0230   -0.5750 O   0  0  0  0  0  0  0  0  0  0  0  0
   24.8150   14.9370   -0.7970 C   0  0  0  0  0  0  0  0  0  0  0  0
   25.7330   13.9410   -1.1370 C   0  0  0  0  0  0  0  0  0  0  0  0
   25.2750   12.6350   -1.3180 C   0  0  0  0  0  0  0  0  0  0  0  0
   23.9180   12.3310   -1.1590 C   0  0  0  0  0  0  0  0  0  0  0  0
   23.0150   13.3430   -0.8150 C   0  0  0  0  0  0  0  0  0  0  0  0
   21.6830   13.0910   -0.6430 O   0  0  0  0  0  0  0  0  0  0  0  0
   20.9960   11.8670   -0.9710 C   0  0  0  0  0  0  0  0  0  0  0  0
   19.5310   12.1590   -0.6410 C   0  0  0  0  0  0  0  0  0  0  0  0
   18.6180   10.9890   -1.0320 C   0  0  0  0  0  0  0  0  0  0  0  0
   17.1660   11.3200   -0.6620 C   0  0  0  0  0  0  0  0  0  0  0  0
   16.2080   10.2200   -1.1360 C   0  0  0  0  0  0  0  0  0  0  0  0
   14.7720   10.5840   -0.7300 C   0  0  0  0  0  0  0  0  0  0  0  0
   13.8350    9.5170   -1.3360 C   0  0  0  0  0  0  0  0  0  0  0  0
   12.4850    9.8880   -0.9330 N   0  0  0  0  0  0  0  0  0  0  0  0
   11.7810    9.3780    0.0780 C   0  0  0  0  0  0  0  0  0  0  0  0
   10.6220   10.0600    0.0820 C   0  0  0  0  0  0  0  0  0  0  0  0
    9.4830    9.8720    1.0640 C   0  0  0  0  0  0  0  0  0  0  0  0
    8.1740    9.8240    0.2550 C   0  0  0  0  0  0  0  0  0  0  0  0
    6.9530    9.6260    1.1640 C   0  0  0  0  0  0  0  0  0  0  0  0
    5.6650    9.7500    0.3340 C   0  0  0  0  0  0  0  0  0  0  0  0
    4.4910    9.5950    1.3130 C   0  0  0  0  0  0  0  0  0  0  0  0
    3.2850    9.8910    0.5200 N   0  3  0  0  0  0  0  0  0  0  0  0
    3.0510   11.3570    0.5650 C   0  0  0  0  0  0  0  0  0  0  0  0
    1.9080   11.6260   -0.4190 C   0  0  0  0  0  0  0  0  0  0  0  0
    0.6840   10.8900    0.1350 C   0  0  0  0  0  0  0  0  0  0  0  0
   -0.4000   11.0990   -0.8010 N   0  0  0  0  0  0  0  0  0  0  0  0
   -1.1770   12.2270   -0.8040 C   0  0  0  0  0  0  0  0  0  0  0  0
   -1.0180   13.0210    0.1300 O   0  0  0  0  0  0  0  0  0  0  0  0
   -2.1060   12.4140   -1.9170 C   0  0  0  0  0  0  0  0  0  0  0  0
   -2.8990   13.5480   -2.1240 C   0  0  0  0  0  0  0  0  0  0  0  0
   -2.9080   14.6970   -1.2660 N   0  0  0  0  0  0  0  0  0  0  0  0
   -3.4160   15.9500   -1.5320 C   0  0  0  0  0  0  0  0  0  0  0  0
   -4.0090   16.1410   -2.5880 O   0  0  0  0  0  0  0  0  0  0  0  0
   -3.2100   16.9880   -0.5420 C   0  0  0  0  0  0  0  0  0  0  0  0
   -4.3060   17.5940    0.1020 C   0  0  0  0  0  0  0  0  0  0  0  0
   -5.9370   17.0720   -0.1990 Cl  0  0  0  0  0  0  0  0  0  0  0  0
   -4.1110   18.6240    1.0240 C   0  0  0  0  0  0  0  0  0  0  0  0
   -2.8240   19.0540    1.3290 C   0  0  0  0  0  0  0  0  0  0  0  0
   -1.7270   18.4580    0.7170 C   0  0  0  0  0  0  0  0  0  0  0  0
   -1.9150   17.4320   -0.2120 C   0  0  0  0  0  0  0  0  0  0  0  0
   -0.4980   16.7370   -0.9460 Cl  0  0  0  0  0  0  0  0  0  0  0  0
   -3.6150   13.3580   -3.2500 C   0  0  0  0  0  0  0  0  0  0  0  0
   -3.2420   12.1340   -3.7010 N   0  0  0  0  0  0  0  0  0  0  0  0
   -2.3170   11.5370   -2.9050 N   0  0  0  0  0  0  0  0  0  0  0  0
    0.9490    9.3850    0.2050 C   0  0  0  0  0  0  0  0  0  0  0  0
    2.1400    9.1980    1.1580 C   0  0  0  0  0  0  0  0  0  0  0  0
   10.6370   10.9730   -0.9130 N   0  0  0  0  0  0  0  0  0  0  0  0
   11.7850   10.8580   -1.5360 N   0  0  0  0  0  0  0  0  0  0  0  0
   23.4730   14.6500   -0.6370 C   0  0  0  0  0  0  0  0  0  0  0  0
   22.8000   15.8810   -0.3010 C   0  0  0  0  0  0  0  0  0  0  0  0
   21.6220   16.1060   -0.0610 O   0  0  0  0  0  0  0  0  0  0  0  0
   22.4770   18.8090   -1.1410 C   0  0  0  0  0  0  0  0  0  0  0  0
   22.4360   18.4280   -2.2900 O   0  0  0  0  0  0  0  0  0  0  0  0
   21.5660   19.7630   -0.8040 N   0  0  0  0  0  0  0  0  0  0  0  0
   23.4960   20.6880    1.2060 H   0  0  0  0  0  0  0  0  0  0  0  0
   22.2620   20.3090    2.4310 H   0  0  0  0  0  0  0  0  0  0  0  0
   22.1030   17.9670    1.5200 H   0  0  0  0  0  0  0  0  0  0  0  0
   23.7590   18.3360    2.0600 H   0  0  0  0  0  0  0  0  0  0  0  0
   24.4320   18.8900   -0.2700 H   0  0  0  0  0  0  0  0  0  0  0  0
   26.7800   14.1770   -1.2580 H   0  0  0  0  0  0  0  0  0  0  0  0
   25.9720   11.8540   -1.5820 H   0  0  0  0  0  0  0  0  0  0  0  0
   23.5690   11.3190   -1.3010 H   0  0  0  0  0  0  0  0  0  0  0  0
   21.1140   11.6290   -2.0280 H   0  0  0  0  0  0  0  0  0  0  0  0
   21.3710   11.0400   -0.3680 H   0  0  0  0  0  0  0  0  0  0  0  0
   19.4390   12.3370    0.4300 H   0  0  0  0  0  0  0  0  0  0  0  0
   19.2170   13.0500   -1.1850 H   0  0  0  0  0  0  0  0  0  0  0  0
   18.6880   10.8180   -2.1060 H   0  0  0  0  0  0  0  0  0  0  0  0
   18.9320   10.0910   -0.5000 H   0  0  0  0  0  0  0  0  0  0  0  0
   17.0880   11.4170    0.4210 H   0  0  0  0  0  0  0  0  0  0  0  0
   16.8850   12.2630   -1.1320 H   0  0  0  0  0  0  0  0  0  0  0  0
   16.4870    9.2720   -0.6760 H   0  0  0  0  0  0  0  0  0  0  0  0
   16.2670   10.1290   -2.2210 H   0  0  0  0  0  0  0  0  0  0  0  0
   14.5140   11.5700   -1.1180 H   0  0  0  0  0  0  0  0  0  0  0  0
   14.6810   10.5860    0.3560 H   0  0  0  0  0  0  0  0  0  0  0  0
   14.0870    8.5290   -0.9500 H   0  0  0  0  0  0  0  0  0  0  0  0
   13.9180    9.5140   -2.4230 H   0  0  0  0  0  0  0  0  0  0  0  0
   12.0780    8.5860    0.7500 H   0  0  0  0  0  0  0  0  0  0  0  0
    9.6150    8.9390    1.6130 H   0  0  0  0  0  0  0  0  0  0  0  0
    9.4560   10.7060    1.7660 H   0  0  0  0  0  0  0  0  0  0  0  0
    8.0610   10.7610   -0.2900 H   0  0  0  0  0  0  0  0  0  0  0  0
    8.2260    8.9960   -0.4520 H   0  0  0  0  0  0  0  0  0  0  0  0
    6.9550   10.3860    1.9450 H   0  0  0  0  0  0  0  0  0  0  0  0
    6.9970    8.6370    1.6200 H   0  0  0  0  0  0  0  0  0  0  0  0
    5.6290    8.9660   -0.4230 H   0  0  0  0  0  0  0  0  0  0  0  0
    5.6230   10.7250   -0.1510 H   0  0  0  0  0  0  0  0  0  0  0  0
    4.5870   10.2990    2.1400 H   0  0  0  0  0  0  0  0  0  0  0  0
    4.4510    8.5780    1.7040 H   0  0  0  0  0  0  0  0  0  0  0  0
    3.3920    9.5860   -0.4370 H   0  0  0  0  0  0  0  0  0  0  0  0
    2.7670   11.6660    1.5710 H   0  0  0  0  0  0  0  0  0  0  0  0
    3.9490   11.8950    0.2600 H   0  0  0  0  0  0  0  0  0  0  0  0
    2.1630   11.2440   -1.4080 H   0  0  0  0  0  0  0  0  0  0  0  0
    1.7090   12.6960   -0.4830 H   0  0  0  0  0  0  0  0  0  0  0  0
    0.4530   11.2620    1.1330 H   0  0  0  0  0  0  0  0  0  0  0  0
   -0.5920   10.3800   -1.4840 H   0  0  0  0  0  0  0  0  0  0  0  0
   -2.4910   14.5730   -0.3550 H   0  0  0  0  0  0  0  0  0  0  0  0
   -4.9610   19.0880    1.5010 H   0  0  0  0  0  0  0  0  0  0  0  0
   -2.6770   19.8520    2.0420 H   0  0  0  0  0  0  0  0  0  0  0  0
   -0.7280   18.7890    0.9600 H   0  0  0  0  0  0  0  0  0  0  0  0
   -4.3300   14.0330   -3.6960 H   0  0  0  0  0  0  0  0  0  0  0  0
   -3.6130   11.7110   -4.5400 H   0  0  0  0  0  0  0  0  0  0  0  0
    0.0720    8.8650    0.5910 H   0  0  0  0  0  0  0  0  0  0  0  0
    1.1940    8.9990   -0.7850 H   0  0  0  0  0  0  0  0  0  0  0  0
    2.3610    8.1380    1.2850 H   0  0  0  0  0  0  0  0  0  0  0  0
    1.9220    9.6420    2.1290 H   0  0  0  0  0  0  0  0  0  0  0  0
   20.8850   20.0410   -1.4960 H   0  0  0  0  0  0  0  0  0  0  0  0
  1  2  2  0  0  0  0
  2  3  1  0  0  0  0
  2 62  1  0  0  0  0
  3  4  1  0  0  0  0
  3 63  1  0  0  0  0
  3 64  1  0  0  0  0
  4  5  1  0  0  0  0
  4 65  1  0  0  0  0
  4 66  1  0  0  0  0
  5  6  1  0  0  0  0
  5 60  1  0  0  0  0
  5 67  1  0  0  0  0
  6  7  1  0  0  0  0
  6 58  1  0  0  0  0
  7  8  2  0  0  0  0
  7  9  1  0  0  0  0
  9 10  1  0  0  0  0
  9 57  2  0  0  0  0
 10 11  2  0  0  0  0
 10 68  1  0  0  0  0
 11 12  1  0  0  0  0
 11 69  1  0  0  0  0
 12 13  2  0  0  0  0
 12 70  1  0  0  0  0
 13 14  1  0  0  0  0
 13 57  1  0  0  0  0
 14 15  1  0  0  0  0
 15 16  1  0  0  0  0
 15 71  1  0  0  0  0
 15 72  1  0  0  0  0
 16 17  1  0  0  0  0
 16 73  1  0  0  0  0
 16 74  1  0  0  0  0
 17 18  1  0  0  0  0
 17 75  1  0  0  0  0
 17 76  1  0  0  0  0
 18 19  1  0  0  0  0
 18 77  1  0  0  0  0
 18 78  1  0  0  0  0
 19 20  1  0  0  0  0
 19 79  1  0  0  0  0
 19 80  1  0  0  0  0
 20 21  1  0  0  0  0
 20 81  1  0  0  0  0
 20 82  1  0  0  0  0
 21 22  1  0  0  0  0
 21 83  1  0  0  0  0
 21 84  1  0  0  0  0
 22 23  1  0  0  0  0
 22 56  1  0  0  0  0
 23 24  2  0  0  0  0
 23 85  1  0  0  0  0
 24 25  1  0  0  0  0
 24 55  1  0  0  0  0
 25 26  1  0  0  0  0
 25 86  1  0  0  0  0
 25 87  1  0  0  0  0
 26 27  1  0  0  0  0
 26 88  1  0  0  0  0
 26 89  1  0  0  0  0
 27 28  1  0  0  0  0
 27 90  1  0  0  0  0
 27 91  1  0  0  0  0
 28 29  1  0  0  0  0
 28 92  1  0  0  0  0
 28 93  1  0  0  0  0
 29 30  1  0  0  0  0
 29 94  1  0  0  0  0
 29 95  1  0  0  0  0
 30 31  1  0  0  0  0
 30 54  1  0  0  0  0
 30 96  1  0  0  0  0
 31 32  1  0  0  0  0
 31 97  1  0  0  0  0
 31 98  1  0  0  0  0
 32 33  1  0  0  0  0
 32 99  1  0  0  0  0
 32100  1  0  0  0  0
 33 34  1  0  0  0  0
 33 53  1  0  0  0  0
 33101  1  0  0  0  0
 34 35  1  0  0  0  0
 34102  1  0  0  0  0
 35 36  2  0  0  0  0
 35 37  1  0  0  0  0
 37 38  1  0  0  0  0
 37 52  2  0  0  0  0
 38 39  1  0  0  0  0
 38 50  2  0  0  0  0
 39 40  1  0  0  0  0
 39103  1  0  0  0  0
 40 41  2  0  0  0  0
 40 42  1  0  0  0  0
 42 43  1  0  0  0  0
 42 48  2  0  0  0  0
 43 44  1  0  0  0  0
 43 45  2  0  0  0  0
 45 46  1  0  0  0  0
 45104  1  0  0  0  0
 46 47  2  0  0  0  0
 46105  1  0  0  0  0
 47 48  1  0  0  0  0
 47106  1  0  0  0  0
 48 49  1  0  0  0  0
 50 51  1  0  0  0  0
 50107  1  0  0  0  0
 51 52  1  0  0  0  0
 51108  1  0  0  0  0
 53 54  1  0  0  0  0
 53109  1  0  0  0  0
 53110  1  0  0  0  0
 54111  1  0  0  0  0
 54112  1  0  0  0  0
 55 56  2  0  0  0  0
 57 58  1  0  0  0  0
 58 59  2  0  0  0  0
 60 61  2  0  0  0  0
 60 62  1  0  0  0  0
 62113  1  0  0  0  0
M  CHG  1  30   1
M  END
>  <Compound ID>
3575

>  <Uniprot>
P50750

>  <Target>
CDK9

>  <E3 ligase>
CRBN

>  <IC50 (nM, Cellular activities)>
50/80/80

>  <Assay (Cellular activities, IC50)>
Cell cytotoxicity (IC50) was determined in MV4-11 cells after 48 h treatment/Post-WO IC50 was determined after 6 h treatment and a total incubation time of 48 h/No-WO IC50 was determined after 6 h treatment and a total incubation time of 48 h

>  <Article DOI>
10.1021/acsmedchemlett.3c00082

>  <Molecular Weight>
889.84198

>  <Exact Mass>
888.3241

>  <XLogP3>
5.6599998

>  <Heavy Atom Count>
62

>  <Ring Count>
7

>  <Hydrogen Bond Acceptor Count>
12

>  <Hydrogen Bond Donor Count>
4

>  <Rotatable Bond Count>
20

>  <Topological Polar Surface Area>
213.61

>  <Molecular Formula>
C43H50Cl2N10O7

>  <InChI>
InChI=1S/C43H50Cl2N10O7/c44-30-13-10-14-31(45)37(30)40(58)48-32-25-46-51-38(32)41(59)47-27-18-22-53(23-19-27)20-6-4-5-11-28-26-54(52-50-28)21-7-2-1-3-8-24-62-34-15-9-12-29-36(34)43(61)55(42(29)60)33-16-17-35(56)49-39(33)57/h9-10,12-15,25-27,33H,1-8,11,16-24H2,(H,46,51)(H,47,59)(H,48,58)(H,49,56,57)

>  <InChI Key>
VUUHHNWFNGGVNN-UHFFFAOYSA-N

>  <Dmax (%)>
70.1

>  <DC50 (nM)>
100

>  <Assay (DC50/Dmax)>
Degradation of CDK9 in MOLM-13 cells

$$$$
