576
  MOE2018           3D

159166  0  0  1  0  0  0  0  0999 V2000
   -1.0700   12.3670    4.8810 C   0  0  0  0  0  0  0  0  0  0  0  0
   -0.2480   13.1610    4.1620 C   0  0  0  0  0  0  0  0  0  0  0  0
   -0.2850   13.2560    2.7080 C   0  0  0  0  0  0  0  0  0  0  0  0
   -1.0640   12.6210    2.0150 O   0  0  0  0  0  0  0  0  0  0  0  0
    0.6100   14.1260    2.1270 N   0  0  0  0  0  0  0  0  0  0  0  0
    0.8210   14.3750    0.7480 C   0  0  0  0  0  0  0  0  0  0  0  0
    0.6040   13.4000   -0.2360 C   0  0  0  0  0  0  0  0  0  0  0  0
    0.8520   13.6990   -1.5750 C   0  0  0  0  0  0  0  0  0  0  0  0
    1.3230   14.9590   -1.9360 C   0  0  0  0  0  0  0  0  0  0  0  0
    1.5430   15.9120   -0.9410 C   0  0  0  0  0  0  0  0  0  0  0  0
    2.0440   17.1950   -1.3100 N   0  0  0  0  0  0  0  0  0  0  0  0
    1.1470   18.2400   -1.5430 C   0  0  0  0  0  0  0  0  0  0  0  0
   -0.0530   18.0420   -1.3600 O   0  0  0  0  0  0  0  0  0  0  0  0
    1.6630   19.5060   -1.9900 C   0  0  0  0  0  0  0  0  0  0  0  0
    2.9940   19.7230   -2.1670 C   0  0  0  0  0  0  0  0  0  0  0  0
    3.4930   21.0770   -2.6420 C   0  0  0  0  0  0  0  0  0  0  0  0
    3.9130   18.6470   -1.8910 C   0  0  0  0  0  0  0  0  0  0  0  0
    5.3030   18.7530   -2.0230 C   0  0  0  0  0  0  0  0  0  0  0  0
    6.0870   17.7370   -1.7500 N   0  0  0  0  0  0  0  0  0  0  0  0
    5.5310   16.5820   -1.3360 C   0  0  0  0  0  0  0  0  0  0  0  0
    6.3060   15.5070   -1.0310 N   0  0  0  0  0  0  0  0  0  0  0  0
    7.7150   15.3320   -1.1240 C   0  0  0  0  0  0  0  0  0  0  0  0
    8.4740   15.9410   -2.1250 C   0  0  0  0  0  0  0  0  0  0  0  0
    9.8470   15.7220   -2.1800 C   0  0  0  0  0  0  0  0  0  0  0  0
   10.4710   14.8950   -1.2390 C   0  0  0  0  0  0  0  0  0  0  0  0
   11.8720   14.7110   -1.3460 N   0  0  0  0  0  0  0  0  0  0  0  0
   12.6680   15.9510   -1.1540 C   0  0  0  0  0  0  0  0  0  0  0  0
   14.0430   15.7350   -1.8330 C   0  0  0  0  0  0  0  0  0  0  0  0
   14.6830   14.5460   -1.2010 N   0  0  0  0  0  0  0  0  0  0  0  0
   15.9350   14.5030   -0.7020 C   0  0  0  0  0  0  0  0  0  0  0  0
   16.3820   13.4790   -0.1960 O   0  0  0  0  0  0  0  0  0  0  0  0
   16.8210   15.7560   -0.7770 C   0  0  0  0  0  0  0  0  0  0  0  0
   18.2840   15.5280   -0.3490 C   0  0  0  0  0  0  0  0  0  0  0  0
   19.1090   16.8130   -0.5070 C   0  0  0  0  0  0  0  0  0  0  0  0
   20.5890   16.5560   -0.1920 C   0  0  0  0  0  0  0  0  0  0  0  0
   21.4090   17.8380   -0.3910 C   0  0  0  0  0  0  0  0  0  0  0  0
   22.9070   17.5730   -0.1850 C   0  0  0  0  0  0  0  0  0  0  0  0
   23.7100   18.8590   -0.4240 C   0  0  0  0  0  0  0  0  0  0  0  0
   25.2190   18.5980   -0.3260 C   0  0  0  0  0  0  0  0  0  0  0  0
   25.9930   19.8930   -0.6080 C   0  0  0  0  0  0  0  0  0  0  0  0
   27.5120   19.6550   -0.6250 C   0  0  0  0  0  0  0  0  0  0  0  0
   28.2710   20.9300   -0.9700 C   0  0  0  0  0  0  0  0  0  0  0  0
   28.5550   21.1880   -2.1340 O   0  0  0  0  0  0  0  0  0  0  0  0
   28.5440   21.7690    0.0240 N   0  0  0  0  0  0  0  0  0  0  0  0
   29.2220   23.0570   -0.1830 C   0  0  2  0  0  0  0  0  0  0  0  0
   30.6830   22.8730   -0.7060 C   0  0  0  0  0  0  0  0  0  0  0  0
   31.5190   22.3210    0.0110 O   0  0  0  0  0  0  0  0  0  0  0  0
   31.0520   23.3450   -1.9180 N   0  0  0  0  0  0  0  0  0  0  0  0
   30.1600   23.7620   -3.0010 C   0  0  0  0  0  0  0  0  0  0  0  0
   30.6920   23.0630   -4.2510 C   0  0  2  0  0  0  0  0  0  0  0  0
   30.2920   21.7060   -4.3090 O   0  0  0  0  0  0  0  0  0  0  0  0
   32.1950   23.1540   -4.0310 C   0  0  0  0  0  0  0  0  0  0  0  0
   32.3730   23.0370   -2.5060 C   0  0  1  0  0  0  0  0  0  0  0  0
   33.5710   23.8620   -1.9450 C   0  0  0  0  0  0  0  0  0  0  0  0
   34.3720   24.4170   -2.6950 O   0  0  0  0  0  0  0  0  0  0  0  0
   33.6690   23.9970   -0.6210 N   0  0  0  0  0  0  0  0  0  0  0  0
   34.7940   24.6360    0.0440 C   0  0  0  0  0  0  0  0  0  0  0  0
   35.7550   23.5020    0.3390 C   0  0  0  0  0  0  0  0  0  0  0  0
   36.6960   23.1190   -0.6160 C   0  0  0  0  0  0  0  0  0  0  0  0
   37.5840   22.0820   -0.3540 C   0  0  0  0  0  0  0  0  0  0  0  0
   37.5510   21.4030    0.8690 C   0  0  0  0  0  0  0  0  0  0  0  0
   38.4910   20.3230    1.1430 C   0  0  0  0  0  0  0  0  0  0  0  0
   39.2920   20.1290    2.2400 C   0  0  0  0  0  0  0  0  0  0  0  0
   39.3790   21.0600    3.4270 C   0  0  0  0  0  0  0  0  0  0  0  0
   40.0500   19.0030    2.2150 N   0  0  0  0  0  0  0  0  0  0  0  0
   39.8520   18.3390    1.1120 C   0  0  0  0  0  0  0  0  0  0  0  0
   38.7240   19.0440    0.0250 S   0  0  0  0  0  0  0  0  0  0  0  0
   36.5910   21.7820    1.8150 C   0  0  0  0  0  0  0  0  0  0  0  0
   35.7040   22.8200    1.5540 C   0  0  0  0  0  0  0  0  0  0  0  0
   29.1070   23.9510    1.0950 C   0  0  0  0  0  0  0  0  0  0  0  0
   29.8320   25.2950    0.8790 C   0  0  0  0  0  0  0  0  0  0  0  0
   29.6730   23.3050    2.3780 C   0  0  0  0  0  0  0  0  0  0  0  0
   27.6250   24.2860    1.3690 C   0  0  0  0  0  0  0  0  0  0  0  0
   13.8690   13.3010   -1.3070 C   0  0  0  0  0  0  0  0  0  0  0  0
   12.5010   13.5650   -0.6370 C   0  0  0  0  0  0  0  0  0  0  0  0
    9.7120   14.2660   -0.2430 C   0  0  0  0  0  0  0  0  0  0  0  0
    8.3350   14.4820   -0.1950 C   0  0  0  0  0  0  0  0  0  0  0  0
    7.5350   13.8610    0.7660 O   0  0  0  0  0  0  0  0  0  0  0  0
    8.0150   12.9480    1.7780 C   0  0  0  0  0  0  0  0  0  0  0  0
    4.2380   16.3830   -1.1740 N   0  0  0  0  0  0  0  0  0  0  0  0
    3.4270   17.4020   -1.4570 C   0  0  0  0  0  0  0  0  0  0  0  0
    1.2960   15.6390    0.4020 C   0  0  0  0  0  0  0  0  0  0  0  0
   -1.8060   11.7570    4.3790 H   0  0  0  0  0  0  0  0  0  0  0  0
   -0.9910   12.3420    5.9580 H   0  0  0  0  0  0  0  0  0  0  0  0
    0.4770   13.7590    4.6940 H   0  0  0  0  0  0  0  0  0  0  0  0
    1.1890   14.6530    2.7640 H   0  0  0  0  0  0  0  0  0  0  0  0
    0.2460   12.4200    0.0430 H   0  0  0  0  0  0  0  0  0  0  0  0
    0.6780   12.9510   -2.3350 H   0  0  0  0  0  0  0  0  0  0  0  0
    1.5150   15.1950   -2.9720 H   0  0  0  0  0  0  0  0  0  0  0  0
    0.9710   20.3100   -2.1920 H   0  0  0  0  0  0  0  0  0  0  0  0
    4.5800   21.0560   -2.7230 H   0  0  0  0  0  0  0  0  0  0  0  0
    3.1970   21.8450   -1.9270 H   0  0  0  0  0  0  0  0  0  0  0  0
    3.0600   21.3020   -3.6170 H   0  0  0  0  0  0  0  0  0  0  0  0
    5.7360   19.6850   -2.3550 H   0  0  0  0  0  0  0  0  0  0  0  0
    5.8010   14.7050   -0.6830 H   0  0  0  0  0  0  0  0  0  0  0  0
    7.9970   16.5800   -2.8540 H   0  0  0  0  0  0  0  0  0  0  0  0
   10.4350   16.1930   -2.9540 H   0  0  0  0  0  0  0  0  0  0  0  0
   12.1560   16.7960   -1.6130 H   0  0  0  0  0  0  0  0  0  0  0  0
   12.8050   16.1440   -0.0900 H   0  0  0  0  0  0  0  0  0  0  0  0
   14.6700   16.6150   -1.6880 H   0  0  0  0  0  0  0  0  0  0  0  0
   13.9060   15.5590   -2.9000 H   0  0  0  0  0  0  0  0  0  0  0  0
   16.8190   16.1140   -1.8070 H   0  0  0  0  0  0  0  0  0  0  0  0
   16.3900   16.5170   -0.1270 H   0  0  0  0  0  0  0  0  0  0  0  0
   18.3060   15.2160    0.6950 H   0  0  0  0  0  0  0  0  0  0  0  0
   18.7200   14.7460   -0.9710 H   0  0  0  0  0  0  0  0  0  0  0  0
   19.0190   17.1710   -1.5330 H   0  0  0  0  0  0  0  0  0  0  0  0
   18.7250   17.5700    0.1770 H   0  0  0  0  0  0  0  0  0  0  0  0
   20.6840   16.2260    0.8420 H   0  0  0  0  0  0  0  0  0  0  0  0
   20.9680   15.7800   -0.8570 H   0  0  0  0  0  0  0  0  0  0  0  0
   21.2490   18.2090   -1.4030 H   0  0  0  0  0  0  0  0  0  0  0  0
   21.0780   18.5880    0.3280 H   0  0  0  0  0  0  0  0  0  0  0  0
   23.2370   16.8070   -0.8860 H   0  0  0  0  0  0  0  0  0  0  0  0
   23.0750   17.2280    0.8350 H   0  0  0  0  0  0  0  0  0  0  0  0
   23.4280   19.5990    0.3250 H   0  0  0  0  0  0  0  0  0  0  0  0
   23.4790   19.2420   -1.4180 H   0  0  0  0  0  0  0  0  0  0  0  0
   25.5030   17.8410   -1.0570 H   0  0  0  0  0  0  0  0  0  0  0  0
   25.4600   18.2440    0.6760 H   0  0  0  0  0  0  0  0  0  0  0  0
   25.7580   20.6210    0.1680 H   0  0  0  0  0  0  0  0  0  0  0  0
   25.6860   20.2840   -1.5780 H   0  0  0  0  0  0  0  0  0  0  0  0
   27.7430   18.8930   -1.3690 H   0  0  0  0  0  0  0  0  0  0  0  0
   27.8280   19.3100    0.3590 H   0  0  0  0  0  0  0  0  0  0  0  0
   28.2740   21.5110    0.9620 H   0  0  0  0  0  0  0  0  0  0  0  0
   28.7100   23.5970   -0.9800 H   0  0  0  0  0  0  0  0  0  0  0  0
   29.1360   23.4490   -2.7950 H   0  0  0  0  0  0  0  0  0  0  0  0
   30.1910   24.8440   -3.1260 H   0  0  0  0  0  0  0  0  0  0  0  0
   30.3330   23.5070   -5.1790 H   0  0  0  0  0  0  0  0  0  0  0  0
   30.5930   21.2800   -3.5030 H   0  0  0  0  0  0  0  0  0  0  0  0
   32.7090   22.3390   -4.5420 H   0  0  0  0  0  0  0  0  0  0  0  0
   32.5790   24.1080   -4.3910 H   0  0  0  0  0  0  0  0  0  0  0  0
   32.6710   22.0290   -2.2180 H   0  0  0  0  0  0  0  0  0  0  0  0
   32.9200   23.6350   -0.0480 H   0  0  0  0  0  0  0  0  0  0  0  0
   35.2590   25.3750   -0.6090 H   0  0  0  0  0  0  0  0  0  0  0  0
   34.4720   25.1180    0.9670 H   0  0  0  0  0  0  0  0  0  0  0  0
   36.7350   23.6320   -1.5660 H   0  0  0  0  0  0  0  0  0  0  0  0
   38.3080   21.7970   -1.1030 H   0  0  0  0  0  0  0  0  0  0  0  0
   38.7070   21.9050    3.2760 H   0  0  0  0  0  0  0  0  0  0  0  0
   40.4020   21.4230    3.5300 H   0  0  0  0  0  0  0  0  0  0  0  0
   39.0920   20.5240    4.3310 H   0  0  0  0  0  0  0  0  0  0  0  0
   40.3610   17.4110    0.8960 H   0  0  0  0  0  0  0  0  0  0  0  0
   36.5390   21.2610    2.7600 H   0  0  0  0  0  0  0  0  0  0  0  0
   34.9710   23.1000    2.2960 H   0  0  0  0  0  0  0  0  0  0  0  0
   29.7420   25.9050    1.7780 H   0  0  0  0  0  0  0  0  0  0  0  0
   29.3810   25.8200    0.0370 H   0  0  0  0  0  0  0  0  0  0  0  0
   30.8860   25.1100    0.6690 H   0  0  0  0  0  0  0  0  0  0  0  0
   29.5520   23.9930    3.2150 H   0  0  0  0  0  0  0  0  0  0  0  0
   30.7310   23.0850    2.2380 H   0  0  0  0  0  0  0  0  0  0  0  0
   29.1350   22.3810    2.5870 H   0  0  0  0  0  0  0  0  0  0  0  0
   27.5520   24.9090    2.2610 H   0  0  0  0  0  0  0  0  0  0  0  0
   27.0660   23.3630    1.5240 H   0  0  0  0  0  0  0  0  0  0  0  0
   27.2100   24.8230    0.5160 H   0  0  0  0  0  0  0  0  0  0  0  0
   13.7230   13.0430   -2.3560 H   0  0  0  0  0  0  0  0  0  0  0  0
   14.3780   12.4820   -0.7980 H   0  0  0  0  0  0  0  0  0  0  0  0
   12.6430   13.8110    0.4150 H   0  0  0  0  0  0  0  0  0  0  0  0
   11.8680   12.6820   -0.7220 H   0  0  0  0  0  0  0  0  0  0  0  0
   10.1880   13.6210    0.4800 H   0  0  0  0  0  0  0  0  0  0  0  0
    7.1790   12.6140    2.3930 H   0  0  0  0  0  0  0  0  0  0  0  0
    8.7480   13.4540    2.4060 H   0  0  0  0  0  0  0  0  0  0  0  0
    8.4800   12.0860    1.2990 H   0  0  0  0  0  0  0  0  0  0  0  0
    1.4690   16.3900    1.1590 H   0  0  0  0  0  0  0  0  0  0  0  0
  1  2  2  0  0  0  0
  1 83  1  0  0  0  0
  1 84  1  0  0  0  0
  2  3  1  0  0  0  0
  2 85  1  0  0  0  0
  3  4  2  0  0  0  0
  3  5  1  0  0  0  0
  5  6  1  0  0  0  0
  5 86  1  0  0  0  0
  6  7  1  0  0  0  0
  6 82  2  0  0  0  0
  7  8  2  0  0  0  0
  7 87  1  0  0  0  0
  8  9  1  0  0  0  0
  8 88  1  0  0  0  0
  9 10  2  0  0  0  0
  9 89  1  0  0  0  0
 10 11  1  0  0  0  0
 10 82  1  0  0  0  0
 11 12  1  0  0  0  0
 11 81  1  0  0  0  0
 12 13  2  0  0  0  0
 12 14  1  0  0  0  0
 14 15  2  0  0  0  0
 14 90  1  0  0  0  0
 15 16  1  0  0  0  0
 15 17  1  0  0  0  0
 16 91  1  0  0  0  0
 16 92  1  0  0  0  0
 16 93  1  0  0  0  0
 17 18  2  0  0  0  0
 17 81  1  0  0  0  0
 18 19  1  0  0  0  0
 18 94  1  0  0  0  0
 19 20  2  0  0  0  0
 20 21  1  0  0  0  0
 20 80  1  0  0  0  0
 21 22  1  0  0  0  0
 21 95  1  0  0  0  0
 22 23  1  0  0  0  0
 22 77  2  0  0  0  0
 23 24  2  0  0  0  0
 23 96  1  0  0  0  0
 24 25  1  0  0  0  0
 24 97  1  0  0  0  0
 25 26  1  0  0  0  0
 25 76  2  0  0  0  0
 26 27  1  0  0  0  0
 26 75  1  0  0  0  0
 27 28  1  0  0  0  0
 27 98  1  0  0  0  0
 27 99  1  0  0  0  0
 28 29  1  0  0  0  0
 28100  1  0  0  0  0
 28101  1  0  0  0  0
 29 30  1  0  0  0  0
 29 74  1  0  0  0  0
 30 31  2  0  0  0  0
 30 32  1  0  0  0  0
 32 33  1  0  0  0  0
 32102  1  0  0  0  0
 32103  1  0  0  0  0
 33 34  1  0  0  0  0
 33104  1  0  0  0  0
 33105  1  0  0  0  0
 34 35  1  0  0  0  0
 34106  1  0  0  0  0
 34107  1  0  0  0  0
 35 36  1  0  0  0  0
 35108  1  0  0  0  0
 35109  1  0  0  0  0
 36 37  1  0  0  0  0
 36110  1  0  0  0  0
 36111  1  0  0  0  0
 37 38  1  0  0  0  0
 37112  1  0  0  0  0
 37113  1  0  0  0  0
 38 39  1  0  0  0  0
 38114  1  0  0  0  0
 38115  1  0  0  0  0
 39 40  1  0  0  0  0
 39116  1  0  0  0  0
 39117  1  0  0  0  0
 40 41  1  0  0  0  0
 40118  1  0  0  0  0
 40119  1  0  0  0  0
 41 42  1  0  0  0  0
 41120  1  0  0  0  0
 41121  1  0  0  0  0
 42 43  2  0  0  0  0
 42 44  1  0  0  0  0
 44 45  1  0  0  0  0
 44122  1  0  0  0  0
 45 46  1  0  0  0  0
 45 70  1  0  0  0  0
 45123  1  0  0  0  0
 46 47  2  0  0  0  0
 46 48  1  0  0  0  0
 48 49  1  0  0  0  0
 48 53  1  0  0  0  0
 49 50  1  0  0  0  0
 49124  1  0  0  0  0
 49125  1  0  0  0  0
 50 51  1  0  0  0  0
 50 52  1  0  0  0  0
 50126  1  0  0  0  0
 51127  1  0  0  0  0
 52 53  1  0  0  0  0
 52128  1  0  0  0  0
 52129  1  0  0  0  0
 53 54  1  0  0  0  0
 53130  1  0  0  0  0
 54 55  2  0  0  0  0
 54 56  1  0  0  0  0
 56 57  1  0  0  0  0
 56131  1  0  0  0  0
 57 58  1  0  0  0  0
 57132  1  0  0  0  0
 57133  1  0  0  0  0
 58 59  1  0  0  0  0
 58 69  2  0  0  0  0
 59 60  2  0  0  0  0
 59134  1  0  0  0  0
 60 61  1  0  0  0  0
 60135  1  0  0  0  0
 61 62  1  0  0  0  0
 61 68  2  0  0  0  0
 62 63  2  0  0  0  0
 62 67  1  0  0  0  0
 63 64  1  0  0  0  0
 63 65  1  0  0  0  0
 64136  1  0  0  0  0
 64137  1  0  0  0  0
 64138  1  0  0  0  0
 65 66  2  0  0  0  0
 66 67  1  0  0  0  0
 66139  1  0  0  0  0
 68 69  1  0  0  0  0
 68140  1  0  0  0  0
 69141  1  0  0  0  0
 70 71  1  0  0  0  0
 70 72  1  0  0  0  0
 70 73  1  0  0  0  0
 71142  1  0  0  0  0
 71143  1  0  0  0  0
 71144  1  0  0  0  0
 72145  1  0  0  0  0
 72146  1  0  0  0  0
 72147  1  0  0  0  0
 73148  1  0  0  0  0
 73149  1  0  0  0  0
 73150  1  0  0  0  0
 74 75  1  0  0  0  0
 74151  1  0  0  0  0
 74152  1  0  0  0  0
 75153  1  0  0  0  0
 75154  1  0  0  0  0
 76 77  1  0  0  0  0
 76155  1  0  0  0  0
 77 78  1  0  0  0  0
 78 79  1  0  0  0  0
 79156  1  0  0  0  0
 79157  1  0  0  0  0
 79158  1  0  0  0  0
 80 81  2  0  0  0  0
 82159  1  0  0  0  0
M  END
>  <Compound ID>
576

>  <Uniprot>
P00533

>  <Target>
EGFR L858R/T790M

>  <E3 ligase>
VHL

>  <DC50 (nM)>
312.9

>  <Assay (DC50/Dmax)>
Degradation of EGFR L858R/T790M in H1975 cells after 16h treatment

>  <Article DOI>
10.1016/j.ejmech.2020.112199

>  <Molecular Weight>
1136.434

>  <Exact Mass>
1135.5677

>  <XLogP3>
8.5299997

>  <Heavy Atom Count>
82

>  <Ring Count>
8

>  <Hydrogen Bond Acceptor Count>
15

>  <Hydrogen Bond Donor Count>
5

>  <Rotatable Bond Count>
24

>  <Topological Polar Surface Area>
233.32001

>  <Molecular Formula>
C62H77N11O8S

>  <InChI>
InChI=1S/C62H77N11O8S/c1-8-52(75)66-44-18-17-19-46(33-44)73-55(78)32-40(2)48-37-64-61(69-58(48)73)67-49-27-26-45(34-51(49)81-7)70-28-30-71(31-29-70)54(77)21-16-14-12-10-9-11-13-15-20-53(76)68-57(62(4,5)6)60(80)72-38-47(74)35-50(72)59(79)63-36-42-22-24-43(25-23-42)56-41(3)65-39-82-56/h8,17-19,22-27,32-34,37,39,47,50,57,74H,1,9-16,20-21,28-31,35-36,38H2,2-7H3,(H,63,79)(H,66,75)(H,68,76)(H,64,67,69)/t47-,50+,57-/m1/s1

>  <InChI Key>
GSUQPNOGNRJJQO-YTFMVYPUSA-N

$$$$
577
  MOE2018           3D

161168  0  0  1  0  0  0  0  0999 V2000
   -0.4780   10.7410   -3.4800 C   0  0  0  0  0  0  0  0  0  0  0  0
   -0.5790   11.9710   -2.9290 C   0  0  0  0  0  0  0  0  0  0  0  0
    0.1100   12.3680   -1.7080 C   0  0  0  0  0  0  0  0  0  0  0  0
    0.8330   11.6180   -1.0700 O   0  0  0  0  0  0  0  0  0  0  0  0
   -0.0710   13.6670   -1.2930 N   0  0  0  0  0  0  0  0  0  0  0  0
    0.4420   14.2780   -0.1250 C   0  0  0  0  0  0  0  0  0  0  0  0
    0.5920   13.5760    1.0780 C   0  0  0  0  0  0  0  0  0  0  0  0
    1.0700   14.2350    2.2090 C   0  0  0  0  0  0  0  0  0  0  0  0
    1.3950   15.5880    2.1460 C   0  0  0  0  0  0  0  0  0  0  0  0
    1.2380   16.2710    0.9380 C   0  0  0  0  0  0  0  0  0  0  0  0
    1.5790   17.6570    0.8700 N   0  0  0  0  0  0  0  0  0  0  0  0
    0.5610   18.6120    0.8090 C   0  0  0  0  0  0  0  0  0  0  0  0
   -0.6090   18.2300    0.7680 O   0  0  0  0  0  0  0  0  0  0  0  0
    0.9190   20.0040    0.7910 C   0  0  0  0  0  0  0  0  0  0  0  0
    2.2140   20.4200    0.8010 C   0  0  0  0  0  0  0  0  0  0  0  0
    2.5430   21.9020    0.7830 C   0  0  0  0  0  0  0  0  0  0  0  0
    3.2590   19.4260    0.8260 C   0  0  0  0  0  0  0  0  0  0  0  0
    4.6260   19.7280    0.8130 C   0  0  0  0  0  0  0  0  0  0  0  0
    5.5300   18.7760    0.8340 N   0  0  0  0  0  0  0  0  0  0  0  0
    5.1180   17.4940    0.8700 C   0  0  0  0  0  0  0  0  0  0  0  0
    6.0080   16.4670    0.8820 N   0  0  0  0  0  0  0  0  0  0  0  0
    7.4250   16.4590    0.7560 C   0  0  0  0  0  0  0  0  0  0  0  0
    8.2340   17.4950    1.2270 C   0  0  0  0  0  0  0  0  0  0  0  0
    9.6150   17.4230    1.0710 C   0  0  0  0  0  0  0  0  0  0  0  0
   10.1970   16.3040    0.4540 C   0  0  0  0  0  0  0  0  0  0  0  0
   11.5990   16.1910    0.2780 N   0  0  0  0  0  0  0  0  0  0  0  0
   12.3860   17.4490    0.2670 C   0  0  0  0  0  0  0  0  0  0  0  0
   13.7760   17.1020   -0.3280 C   0  0  0  0  0  0  0  0  0  0  0  0
   14.4390   16.0750    0.5550 N   0  3  0  0  0  0  0  0  0  0  0  0
   15.7620   15.7530   -0.0050 C   0  0  0  0  0  0  0  0  0  0  0  0
   16.7200   16.8140    0.5570 C   0  0  0  0  0  0  0  0  0  0  0  0
   18.1070   16.4740   -0.0100 C   0  0  0  0  0  0  0  0  0  0  0  0
   19.1530   17.4880    0.4720 C   0  0  0  0  0  0  0  0  0  0  0  0
   20.5240   17.1570   -0.1310 C   0  0  0  0  0  0  0  0  0  0  0  0
   21.5820   18.1740    0.3170 C   0  0  0  0  0  0  0  0  0  0  0  0
   22.9310   17.8530   -0.3400 C   0  0  0  0  0  0  0  0  0  0  0  0
   24.0020   18.8700    0.0740 C   0  0  0  0  0  0  0  0  0  0  0  0
   25.3220   18.5650   -0.6460 C   0  0  0  0  0  0  0  0  0  0  0  0
   26.4060   19.5810   -0.2660 C   0  0  0  0  0  0  0  0  0  0  0  0
   27.6950   19.3060   -1.0610 C   0  0  0  0  0  0  0  0  0  0  0  0
   28.8190   20.2810   -0.7380 C   0  0  0  0  0  0  0  0  0  0  0  0
   29.8660   19.8720   -0.2570 O   0  0  0  0  0  0  0  0  0  0  0  0
   28.6280   21.5530   -1.0860 N   0  0  0  0  0  0  0  0  0  0  0  0
   29.5470   22.6830   -0.8130 C   0  0  2  0  0  0  0  0  0  0  0  0
   31.0840   22.3630   -0.9390 C   0  0  0  0  0  0  0  0  0  0  0  0
   31.8560   22.6020   -0.0120 O   0  0  0  0  0  0  0  0  0  0  0  0
   31.5960   21.8270   -2.0720 N   0  0  0  0  0  0  0  0  0  0  0  0
   30.8890   21.4820   -3.3020 C   0  0  0  0  0  0  0  0  0  0  0  0
   31.3560   20.0690   -3.6430 C   0  0  2  0  0  0  0  0  0  0  0  0
   30.6550   19.0970   -2.8950 O   0  0  0  0  0  0  0  0  0  0  0  0
   32.8220   20.1060   -3.2290 C   0  0  0  0  0  0  0  0  0  0  0  0
   32.9040   21.1370   -2.0850 C   0  0  1  0  0  0  0  0  0  0  0  0
   34.1650   22.0550   -2.1580 C   0  0  0  0  0  0  0  0  0  0  0  0
   35.1280   21.7570   -2.8630 O   0  0  0  0  0  0  0  0  0  0  0  0
   34.1420   23.2070   -1.4870 N   0  0  0  0  0  0  0  0  0  0  0  0
   35.2760   24.1130   -1.3940 C   0  0  0  0  0  0  0  0  0  0  0  0
   35.9700   23.7200   -0.1050 C   0  0  0  0  0  0  0  0  0  0  0  0
   36.9920   22.7730   -0.1240 C   0  0  0  0  0  0  0  0  0  0  0  0
   37.6370   22.4100    1.0530 C   0  0  0  0  0  0  0  0  0  0  0  0
   37.2730   22.9850    2.2760 C   0  0  0  0  0  0  0  0  0  0  0  0
   37.9590   22.6070    3.5060 C   0  0  0  0  0  0  0  0  0  0  0  0
   38.4840   23.4070    4.4900 C   0  0  0  0  0  0  0  0  0  0  0  0
   38.4740   24.9180    4.4800 C   0  0  0  0  0  0  0  0  0  0  0  0
   39.0490   22.7500    5.5360 N   0  0  0  0  0  0  0  0  0  0  0  0
   38.9760   21.4620    5.3640 C   0  0  0  0  0  0  0  0  0  0  0  0
   38.2110   20.9590    3.9090 S   0  0  0  0  0  0  0  0  0  0  0  0
   36.2300   23.9180    2.2880 C   0  0  0  0  0  0  0  0  0  0  0  0
   35.5860   24.2830    1.1110 C   0  0  0  0  0  0  0  0  0  0  0  0
   29.0780   23.4520    0.4760 C   0  0  0  0  0  0  0  0  0  0  0  0
   29.7990   24.8090    0.6330 C   0  0  0  0  0  0  0  0  0  0  0  0
   29.2520   22.6410    1.7770 C   0  0  0  0  0  0  0  0  0  0  0  0
   27.5750   23.8110    0.3780 C   0  0  0  0  0  0  0  0  0  0  0  0
   13.6070   14.8230    0.5000 C   0  0  0  0  0  0  0  0  0  0  0  0
   12.2060   15.1170    1.1010 C   0  0  0  0  0  0  0  0  0  0  0  0
    9.3920   15.2570   -0.0050 C   0  0  0  0  0  0  0  0  0  0  0  0
    8.0100   15.3360    0.1520 C   0  0  0  0  0  0  0  0  0  0  0  0
    7.1710   14.3100   -0.2790 O   0  0  0  0  0  0  0  0  0  0  0  0
    7.5810   13.1530   -1.0390 C   0  0  0  0  0  0  0  0  0  0  0  0
    3.8580   17.1090    0.8820 N   0  0  0  0  0  0  0  0  0  0  0  0
    2.9270   18.0600    0.8610 C   0  0  0  0  0  0  0  0  0  0  0  0
    0.7620   15.6320   -0.2040 C   0  0  0  0  0  0  0  0  0  0  0  0
    0.1400    9.9890   -3.0120 H   0  0  0  0  0  0  0  0  0  0  0  0
   -1.0160   10.5100   -4.3880 H   0  0  0  0  0  0  0  0  0  0  0  0
   -1.2050   12.7000   -3.4210 H   0  0  0  0  0  0  0  0  0  0  0  0
   -0.6360   14.2520   -1.8920 H   0  0  0  0  0  0  0  0  0  0  0  0
    0.3380   12.5280    1.1290 H   0  0  0  0  0  0  0  0  0  0  0  0
    1.1890   13.6950    3.1370 H   0  0  0  0  0  0  0  0  0  0  0  0
    1.7640   16.1030    3.0210 H   0  0  0  0  0  0  0  0  0  0  0  0
    0.1330   20.7450    0.7690 H   0  0  0  0  0  0  0  0  0  0  0  0
    3.6250   22.0340    0.7950 H   0  0  0  0  0  0  0  0  0  0  0  0
    2.1090   22.3810    1.6610 H   0  0  0  0  0  0  0  0  0  0  0  0
    2.1310   22.3550   -0.1190 H   0  0  0  0  0  0  0  0  0  0  0  0
    4.9420   20.7600    0.7850 H   0  0  0  0  0  0  0  0  0  0  0  0
    5.5930   15.5540    1.0010 H   0  0  0  0  0  0  0  0  0  0  0  0
    7.7890   18.3510    1.7120 H   0  0  0  0  0  0  0  0  0  0  0  0
   10.2400   18.2290    1.4250 H   0  0  0  0  0  0  0  0  0  0  0  0
   11.8890   18.1970   -0.3510 H   0  0  0  0  0  0  0  0  0  0  0  0
   12.4970   17.8310    1.2820 H   0  0  0  0  0  0  0  0  0  0  0  0
   14.3910   18.0010   -0.3700 H   0  0  0  0  0  0  0  0  0  0  0  0
   13.6540   16.6970   -1.3330 H   0  0  0  0  0  0  0  0  0  0  0  0
   14.5280   16.4230    1.4990 H   0  0  0  0  0  0  0  0  0  0  0  0
   16.0740   14.7560    0.3060 H   0  0  0  0  0  0  0  0  0  0  0  0
   15.7360   15.8020   -1.0940 H   0  0  0  0  0  0  0  0  0  0  0  0
   16.4130   17.8090    0.2360 H   0  0  0  0  0  0  0  0  0  0  0  0
   16.7350   16.7720    1.6460 H   0  0  0  0  0  0  0  0  0  0  0  0
   18.3950   15.4770    0.3230 H   0  0  0  0  0  0  0  0  0  0  0  0
   18.0630   16.4950   -1.0990 H   0  0  0  0  0  0  0  0  0  0  0  0
   18.8550   18.4890    0.1610 H   0  0  0  0  0  0  0  0  0  0  0  0
   19.2180   17.4490    1.5590 H   0  0  0  0  0  0  0  0  0  0  0  0
   20.8260   16.1620    0.1950 H   0  0  0  0  0  0  0  0  0  0  0  0
   20.4490   17.1760   -1.2180 H   0  0  0  0  0  0  0  0  0  0  0  0
   21.2670   19.1750    0.0240 H   0  0  0  0  0  0  0  0  0  0  0  0
   21.6890   18.1300    1.4010 H   0  0  0  0  0  0  0  0  0  0  0  0
   22.8150   17.8790   -1.4230 H   0  0  0  0  0  0  0  0  0  0  0  0
   23.2490   16.8570   -0.0330 H   0  0  0  0  0  0  0  0  0  0  0  0
   24.1570   18.8130    1.1510 H   0  0  0  0  0  0  0  0  0  0  0  0
   23.6690   19.8730   -0.1920 H   0  0  0  0  0  0  0  0  0  0  0  0
   25.1580   18.6060   -1.7230 H   0  0  0  0  0  0  0  0  0  0  0  0
   25.6570   17.5660   -0.3670 H   0  0  0  0  0  0  0  0  0  0  0  0
   26.6170   19.5010    0.8000 H   0  0  0  0  0  0  0  0  0  0  0  0
   26.0520   20.5870   -0.4920 H   0  0  0  0  0  0  0  0  0  0  0  0
   27.4680   19.3790   -2.1250 H   0  0  0  0  0  0  0  0  0  0  0  0
   28.0350   18.2960   -0.8310 H   0  0  0  0  0  0  0  0  0  0  0  0
   27.7750   21.7670   -1.5830 H   0  0  0  0  0  0  0  0  0  0  0  0
   29.4620   23.3910   -1.6380 H   0  0  0  0  0  0  0  0  0  0  0  0
   29.8110   21.5010   -3.1420 H   0  0  0  0  0  0  0  0  0  0  0  0
   31.1500   22.1750   -4.1010 H   0  0  0  0  0  0  0  0  0  0  0  0
   31.1930   19.8020   -4.6870 H   0  0  0  0  0  0  0  0  0  0  0  0
   30.7780   19.3020   -1.9650 H   0  0  0  0  0  0  0  0  0  0  0  0
   33.1440   19.1250   -2.8810 H   0  0  0  0  0  0  0  0  0  0  0  0
   33.4460   20.4170   -4.0670 H   0  0  0  0  0  0  0  0  0  0  0  0
   33.0650   20.6590   -1.1190 H   0  0  0  0  0  0  0  0  0  0  0  0
   33.2870   23.4660   -1.0160 H   0  0  0  0  0  0  0  0  0  0  0  0
   35.9430   23.9840   -2.2460 H   0  0  0  0  0  0  0  0  0  0  0  0
   34.9390   25.1490   -1.3500 H   0  0  0  0  0  0  0  0  0  0  0  0
   37.2850   22.3180   -1.0590 H   0  0  0  0  0  0  0  0  0  0  0  0
   38.4280   21.6760    1.0230 H   0  0  0  0  0  0  0  0  0  0  0  0
   37.9850   25.2720    3.5730 H   0  0  0  0  0  0  0  0  0  0  0  0
   39.4990   25.2880    4.5080 H   0  0  0  0  0  0  0  0  0  0  0  0
   37.9310   25.2840    5.3520 H   0  0  0  0  0  0  0  0  0  0  0  0
   39.3680   20.7590    6.0840 H   0  0  0  0  0  0  0  0  0  0  0  0
   35.9210   24.3600    3.2240 H   0  0  0  0  0  0  0  0  0  0  0  0
   34.7840   25.0060    1.1390 H   0  0  0  0  0  0  0  0  0  0  0  0
   29.4450   25.3060    1.5360 H   0  0  0  0  0  0  0  0  0  0  0  0
   29.5870   25.4350   -0.2340 H   0  0  0  0  0  0  0  0  0  0  0  0
   30.8740   24.6430    0.7070 H   0  0  0  0  0  0  0  0  0  0  0  0
   28.9080   23.2350    2.6240 H   0  0  0  0  0  0  0  0  0  0  0  0
   30.3050   22.3920    1.9120 H   0  0  0  0  0  0  0  0  0  0  0  0
   28.6670   21.7240    1.7140 H   0  0  0  0  0  0  0  0  0  0  0  0
   27.2690   24.3430    1.2790 H   0  0  0  0  0  0  0  0  0  0  0  0
   26.9890   22.8970    0.2780 H   0  0  0  0  0  0  0  0  0  0  0  0
   27.4090   24.4460   -0.4920 H   0  0  0  0  0  0  0  0  0  0  0  0
   13.5000   14.5010   -0.5360 H   0  0  0  0  0  0  0  0  0  0  0  0
   14.0930   14.0360    1.0760 H   0  0  0  0  0  0  0  0  0  0  0  0
   12.3040   15.4480    2.1350 H   0  0  0  0  0  0  0  0  0  0  0  0
   11.5870   14.2210    1.0630 H   0  0  0  0  0  0  0  0  0  0  0  0
    9.8380   14.3940   -0.4770 H   0  0  0  0  0  0  0  0  0  0  0  0
    6.7150   12.5210   -1.2340 H   0  0  0  0  0  0  0  0  0  0  0  0
    8.3220   12.5890   -0.4720 H   0  0  0  0  0  0  0  0  0  0  0  0
    8.0160   13.4750   -1.9850 H   0  0  0  0  0  0  0  0  0  0  0  0
    0.6430   16.1740   -1.1310 H   0  0  0  0  0  0  0  0  0  0  0  0
  1  2  2  0  0  0  0
  1 82  1  0  0  0  0
  1 83  1  0  0  0  0
  2  3  1  0  0  0  0
  2 84  1  0  0  0  0
  3  4  2  0  0  0  0
  3  5  1  0  0  0  0
  5  6  1  0  0  0  0
  5 85  1  0  0  0  0
  6  7  1  0  0  0  0
  6 81  2  0  0  0  0
  7  8  2  0  0  0  0
  7 86  1  0  0  0  0
  8  9  1  0  0  0  0
  8 87  1  0  0  0  0
  9 10  2  0  0  0  0
  9 88  1  0  0  0  0
 10 11  1  0  0  0  0
 10 81  1  0  0  0  0
 11 12  1  0  0  0  0
 11 80  1  0  0  0  0
 12 13  2  0  0  0  0
 12 14  1  0  0  0  0
 14 15  2  0  0  0  0
 14 89  1  0  0  0  0
 15 16  1  0  0  0  0
 15 17  1  0  0  0  0
 16 90  1  0  0  0  0
 16 91  1  0  0  0  0
 16 92  1  0  0  0  0
 17 18  2  0  0  0  0
 17 80  1  0  0  0  0
 18 19  1  0  0  0  0
 18 93  1  0  0  0  0
 19 20  2  0  0  0  0
 20 21  1  0  0  0  0
 20 79  1  0  0  0  0
 21 22  1  0  0  0  0
 21 94  1  0  0  0  0
 22 23  1  0  0  0  0
 22 76  2  0  0  0  0
 23 24  2  0  0  0  0
 23 95  1  0  0  0  0
 24 25  1  0  0  0  0
 24 96  1  0  0  0  0
 25 26  1  0  0  0  0
 25 75  2  0  0  0  0
 26 27  1  0  0  0  0
 26 74  1  0  0  0  0
 27 28  1  0  0  0  0
 27 97  1  0  0  0  0
 27 98  1  0  0  0  0
 28 29  1  0  0  0  0
 28 99  1  0  0  0  0
 28100  1  0  0  0  0
 29 30  1  0  0  0  0
 29 73  1  0  0  0  0
 29101  1  0  0  0  0
 30 31  1  0  0  0  0
 30102  1  0  0  0  0
 30103  1  0  0  0  0
 31 32  1  0  0  0  0
 31104  1  0  0  0  0
 31105  1  0  0  0  0
 32 33  1  0  0  0  0
 32106  1  0  0  0  0
 32107  1  0  0  0  0
 33 34  1  0  0  0  0
 33108  1  0  0  0  0
 33109  1  0  0  0  0
 34 35  1  0  0  0  0
 34110  1  0  0  0  0
 34111  1  0  0  0  0
 35 36  1  0  0  0  0
 35112  1  0  0  0  0
 35113  1  0  0  0  0
 36 37  1  0  0  0  0
 36114  1  0  0  0  0
 36115  1  0  0  0  0
 37 38  1  0  0  0  0
 37116  1  0  0  0  0
 37117  1  0  0  0  0
 38 39  1  0  0  0  0
 38118  1  0  0  0  0
 38119  1  0  0  0  0
 39 40  1  0  0  0  0
 39120  1  0  0  0  0
 39121  1  0  0  0  0
 40 41  1  0  0  0  0
 40122  1  0  0  0  0
 40123  1  0  0  0  0
 41 42  2  0  0  0  0
 41 43  1  0  0  0  0
 43 44  1  0  0  0  0
 43124  1  0  0  0  0
 44 45  1  0  0  0  0
 44 69  1  0  0  0  0
 44125  1  0  0  0  0
 45 46  2  0  0  0  0
 45 47  1  0  0  0  0
 47 48  1  0  0  0  0
 47 52  1  0  0  0  0
 48 49  1  0  0  0  0
 48126  1  0  0  0  0
 48127  1  0  0  0  0
 49 50  1  0  0  0  0
 49 51  1  0  0  0  0
 49128  1  0  0  0  0
 50129  1  0  0  0  0
 51 52  1  0  0  0  0
 51130  1  0  0  0  0
 51131  1  0  0  0  0
 52 53  1  0  0  0  0
 52132  1  0  0  0  0
 53 54  2  0  0  0  0
 53 55  1  0  0  0  0
 55 56  1  0  0  0  0
 55133  1  0  0  0  0
 56 57  1  0  0  0  0
 56134  1  0  0  0  0
 56135  1  0  0  0  0
 57 58  1  0  0  0  0
 57 68  2  0  0  0  0
 58 59  2  0  0  0  0
 58136  1  0  0  0  0
 59 60  1  0  0  0  0
 59137  1  0  0  0  0
 60 61  1  0  0  0  0
 60 67  2  0  0  0  0
 61 62  2  0  0  0  0
 61 66  1  0  0  0  0
 62 63  1  0  0  0  0
 62 64  1  0  0  0  0
 63138  1  0  0  0  0
 63139  1  0  0  0  0
 63140  1  0  0  0  0
 64 65  2  0  0  0  0
 65 66  1  0  0  0  0
 65141  1  0  0  0  0
 67 68  1  0  0  0  0
 67142  1  0  0  0  0
 68143  1  0  0  0  0
 69 70  1  0  0  0  0
 69 71  1  0  0  0  0
 69 72  1  0  0  0  0
 70144  1  0  0  0  0
 70145  1  0  0  0  0
 70146  1  0  0  0  0
 71147  1  0  0  0  0
 71148  1  0  0  0  0
 71149  1  0  0  0  0
 72150  1  0  0  0  0
 72151  1  0  0  0  0
 72152  1  0  0  0  0
 73 74  1  0  0  0  0
 73153  1  0  0  0  0
 73154  1  0  0  0  0
 74155  1  0  0  0  0
 74156  1  0  0  0  0
 75 76  1  0  0  0  0
 75157  1  0  0  0  0
 76 77  1  0  0  0  0
 77 78  1  0  0  0  0
 78158  1  0  0  0  0
 78159  1  0  0  0  0
 78160  1  0  0  0  0
 79 80  2  0  0  0  0
 81161  1  0  0  0  0
M  CHG  1  29   1
M  END
>  <Compound ID>
577

>  <Uniprot>
P00533

>  <Target>
EGFR L858R/T790M

>  <E3 ligase>
VHL

>  <DC50 (nM)>
25.3

>  <Assay (DC50/Dmax)>
Degradation of EGFR L858R/T790M in H1975 cells after 16h treatment

>  <Article DOI>
10.1016/j.ejmech.2020.112199

>  <Molecular Weight>
1122.451

>  <Exact Mass>
1121.5885

>  <XLogP3>
9.4899998

>  <Heavy Atom Count>
81

>  <Ring Count>
8

>  <Hydrogen Bond Acceptor Count>
15

>  <Hydrogen Bond Donor Count>
5

>  <Rotatable Bond Count>
25

>  <Topological Polar Surface Area>
216.25

>  <Molecular Formula>
C62H79N11O7S

>  <InChI>
InChI=1S/C62H79N11O7S/c1-8-53(75)66-45-19-18-20-47(34-45)73-55(77)33-41(2)49-38-64-61(69-58(49)73)67-50-27-26-46(35-52(50)80-7)71-31-29-70(30-32-71)28-17-15-13-11-9-10-12-14-16-21-54(76)68-57(62(4,5)6)60(79)72-39-48(74)36-51(72)59(78)63-37-43-22-24-44(25-23-43)56-42(3)65-40-81-56/h8,18-20,22-27,33-35,38,40,48,51,57,74H,1,9-17,21,28-32,36-37,39H2,2-7H3,(H,63,78)(H,66,75)(H,68,76)(H,64,67,69)/t48-,51+,57-/m1/s1

>  <InChI Key>
HQGHIKHHXKBFOJ-OIQPADLRSA-N

$$$$
581
  MOE2018           3D

153160  0  0  1  0  0  0  0  0999 V2000
   -0.8370    9.8470    2.8290 C   0  0  0  0  0  0  0  0  0  0  0  0
   -0.7160   11.0590    2.2460 C   0  0  0  0  0  0  0  0  0  0  0  0
    0.2600   11.3640    1.2080 C   0  0  0  0  0  0  0  0  0  0  0  0
    1.0470   10.5410    0.7640 O   0  0  0  0  0  0  0  0  0  0  0  0
    0.2780   12.6570    0.7390 N   0  0  0  0  0  0  0  0  0  0  0  0
    1.0830   13.1890   -0.2980 C   0  0  0  0  0  0  0  0  0  0  0  0
    1.4510   12.4300   -1.4160 C   0  0  0  0  0  0  0  0  0  0  0  0
    2.2190   13.0110   -2.4240 C   0  0  0  0  0  0  0  0  0  0  0  0
    2.6160   14.3420   -2.3230 C   0  0  0  0  0  0  0  0  0  0  0  0
    2.2360   15.0830   -1.2020 C   0  0  0  0  0  0  0  0  0  0  0  0
    2.6500   16.4470   -1.0990 N   0  0  0  0  0  0  0  0  0  0  0  0
    1.7310   17.4660   -1.3590 C   0  0  0  0  0  0  0  0  0  0  0  0
    0.5590   17.1630   -1.5840 O   0  0  0  0  0  0  0  0  0  0  0  0
    2.1890   18.8290   -1.3510 C   0  0  0  0  0  0  0  0  0  0  0  0
    3.4750   19.1590   -1.0570 C   0  0  0  0  0  0  0  0  0  0  0  0
    3.9170   20.6130   -1.0650 C   0  0  0  0  0  0  0  0  0  0  0  0
    4.4030   18.1030   -0.7330 C   0  0  0  0  0  0  0  0  0  0  0  0
    5.7410   18.3180   -0.3830 C   0  0  0  0  0  0  0  0  0  0  0  0
    6.5330   17.3140   -0.0880 N   0  0  0  0  0  0  0  0  0  0  0  0
    6.0330   16.0630   -0.1270 C   0  0  0  0  0  0  0  0  0  0  0  0
    6.8150   14.9880    0.1580 N   0  0  0  0  0  0  0  0  0  0  0  0
    8.1990   14.9220    0.4760 C   0  0  0  0  0  0  0  0  0  0  0  0
    8.8320   15.8960    1.2510 C   0  0  0  0  0  0  0  0  0  0  0  0
   10.1880   15.7740    1.5390 C   0  0  0  0  0  0  0  0  0  0  0  0
   10.9200   14.6820    1.0580 C   0  0  0  0  0  0  0  0  0  0  0  0
   12.2990   14.6160    1.3780 N   0  0  0  0  0  0  0  0  0  0  0  0
   13.0090   13.3180    1.2190 C   0  0  0  0  0  0  0  0  0  0  0  0
   14.3010   13.3860    2.0660 C   0  0  0  0  0  0  0  0  0  0  0  0
   15.1120   14.5370    1.5770 N   0  0  0  0  0  0  0  0  0  0  0  0
   16.4090   14.3700    1.2450 C   0  0  0  0  0  0  0  0  0  0  0  0
   16.9140   13.2530    1.2060 O   0  0  0  0  0  0  0  0  0  0  0  0
   17.2690   15.5990    0.9160 C   0  0  0  0  0  0  0  0  0  0  0  0
   18.7700   15.2980    0.7460 C   0  0  0  0  0  0  0  0  0  0  0  0
   19.5600   16.5870    0.4740 C   0  0  0  0  0  0  0  0  0  0  0  0
   21.0690   16.3060    0.4430 C   0  0  0  0  0  0  0  0  0  0  0  0
   21.8480   17.6070    0.2100 C   0  0  0  0  0  0  0  0  0  0  0  0
   23.3610   17.3720    0.3270 C   0  0  0  0  0  0  0  0  0  0  0  0
   24.1150   18.6960    0.1390 C   0  0  0  0  0  0  0  0  0  0  0  0
   25.6200   18.5350    0.4090 C   0  0  0  0  0  0  0  0  0  0  0  0
   26.3520   19.8670    0.3010 C   0  0  0  0  0  0  0  0  0  0  0  0
   26.2290   20.6910    1.1890 O   0  0  0  0  0  0  0  0  0  0  0  0
   27.0250   20.0980   -0.8230 N   0  0  0  0  0  0  0  0  0  0  0  0
   27.7980   21.3020   -1.2040 C   0  0  2  0  0  0  0  0  0  0  0  0
   29.1050   21.6640   -0.4000 C   0  0  0  0  0  0  0  0  0  0  0  0
   30.1710   21.4330   -0.9720 O   0  0  0  0  0  0  0  0  0  0  0  0
   29.1680   22.1790    0.8510 N   0  0  0  0  0  0  0  0  0  0  0  0
   28.0900   22.7860    1.6220 C   0  0  0  0  0  0  0  0  0  0  0  0
   28.7090   23.9950    2.3200 C   0  0  2  0  0  0  0  0  0  0  0  0
   28.8510   25.0920    1.4400 O   0  0  0  0  0  0  0  0  0  0  0  0
   30.0790   23.4510    2.6890 C   0  0  0  0  0  0  0  0  0  0  0  0
   30.4440   22.4930    1.5400 C   0  0  1  0  0  0  0  0  0  0  0  0
   31.3190   21.2880    2.0100 C   0  0  0  0  0  0  0  0  0  0  0  0
   31.8450   21.2850    3.1220 O   0  0  0  0  0  0  0  0  0  0  0  0
   31.4850   20.2580    1.1790 N   0  0  0  0  0  0  0  0  0  0  0  0
   32.4400   19.1840    1.4120 C   0  0  0  0  0  0  0  0  0  0  0  0
   33.7070   19.6600    0.7280 C   0  0  0  0  0  0  0  0  0  0  0  0
   33.9750   19.3170   -0.5970 C   0  0  0  0  0  0  0  0  0  0  0  0
   35.1340   19.7670   -1.2190 C   0  0  0  0  0  0  0  0  0  0  0  0
   36.0510   20.5710   -0.5320 C   0  0  0  0  0  0  0  0  0  0  0  0
   37.2680   21.0460   -1.1800 C   0  0  0  0  0  0  0  0  0  0  0  0
   38.2090   20.3400   -1.8850 C   0  0  0  0  0  0  0  0  0  0  0  0
   38.1800   18.8480   -2.1180 C   0  0  0  0  0  0  0  0  0  0  0  0
   39.2290   21.0780   -2.3960 N   0  0  0  0  0  0  0  0  0  0  0  0
   39.0910   22.3330   -2.0800 C   0  0  0  0  0  0  0  0  0  0  0  0
   37.7030   22.7040   -1.1370 S   0  0  0  0  0  0  0  0  0  0  0  0
   35.7690   20.9190    0.7940 C   0  0  0  0  0  0  0  0  0  0  0  0
   34.6110   20.4680    1.4160 C   0  0  0  0  0  0  0  0  0  0  0  0
   26.9170   22.4470   -1.8320 C   0  0  0  0  0  0  0  0  0  0  0  0
   26.5990   22.0770   -3.3010 C   0  0  0  0  0  0  0  0  0  0  0  0
   27.6610   23.7960   -1.8960 C   0  0  0  0  0  0  0  0  0  0  0  0
   25.5300   22.6810   -1.1900 C   0  0  0  0  0  0  0  0  0  0  0  0
   14.4010   15.8450    1.6560 C   0  0  0  0  0  0  0  0  0  0  0  0
   13.1060   15.7310    0.8150 C   0  0  0  0  0  0  0  0  0  0  0  0
   10.2840   13.6900    0.2980 C   0  0  0  0  0  0  0  0  0  0  0  0
    8.9250   13.8120    0.0170 C   0  0  0  0  0  0  0  0  0  0  0  0
    8.2440   12.8430   -0.7220 O   0  0  0  0  0  0  0  0  0  0  0  0
    8.8370   11.6480   -1.2740 C   0  0  0  0  0  0  0  0  0  0  0  0
    4.7930   15.7570   -0.4500 N   0  0  0  0  0  0  0  0  0  0  0  0
    3.9760   16.7640   -0.7530 C   0  0  0  0  0  0  0  0  0  0  0  0
    1.4700   14.5230   -0.1830 C   0  0  0  0  0  0  0  0  0  0  0  0
   -0.1880    9.0370    2.5310 H   0  0  0  0  0  0  0  0  0  0  0  0
   -1.5830    9.6880    3.5940 H   0  0  0  0  0  0  0  0  0  0  0  0
   -1.3810   11.8470    2.5670 H   0  0  0  0  0  0  0  0  0  0  0  0
   -0.3570   13.3030    1.1860 H   0  0  0  0  0  0  0  0  0  0  0  0
    1.1410   11.3990   -1.4970 H   0  0  0  0  0  0  0  0  0  0  0  0
    2.5070   12.4270   -3.2860 H   0  0  0  0  0  0  0  0  0  0  0  0
    3.2110   14.7960   -3.1020 H   0  0  0  0  0  0  0  0  0  0  0  0
    1.4890   19.6170   -1.5860 H   0  0  0  0  0  0  0  0  0  0  0  0
    4.9740   20.6730   -0.8060 H   0  0  0  0  0  0  0  0  0  0  0  0
    3.3320   21.1750   -0.3360 H   0  0  0  0  0  0  0  0  0  0  0  0
    3.7620   21.0350   -2.0580 H   0  0  0  0  0  0  0  0  0  0  0  0
    6.1280   19.3260   -0.3550 H   0  0  0  0  0  0  0  0  0  0  0  0
    6.3380   14.0980    0.1410 H   0  0  0  0  0  0  0  0  0  0  0  0
    8.2720   16.7400    1.6250 H   0  0  0  0  0  0  0  0  0  0  0  0
   10.6790   16.5270    2.1380 H   0  0  0  0  0  0  0  0  0  0  0  0
   12.3770   12.5030    1.5700 H   0  0  0  0  0  0  0  0  0  0  0  0
   13.2600   13.1570    0.1700 H   0  0  0  0  0  0  0  0  0  0  0  0
   14.8660   12.4610    1.9530 H   0  0  0  0  0  0  0  0  0  0  0  0
   14.0480   13.5320    3.1160 H   0  0  0  0  0  0  0  0  0  0  0  0
   16.9010   16.0340   -0.0130 H   0  0  0  0  0  0  0  0  0  0  0  0
   17.1550   16.3210    1.7250 H   0  0  0  0  0  0  0  0  0  0  0  0
   19.1470   14.8340    1.6580 H   0  0  0  0  0  0  0  0  0  0  0  0
   18.9040   14.6140   -0.0920 H   0  0  0  0  0  0  0  0  0  0  0  0
   19.2530   16.9980   -0.4880 H   0  0  0  0  0  0  0  0  0  0  0  0
   19.3470   17.3090    1.2620 H   0  0  0  0  0  0  0  0  0  0  0  0
   21.3730   15.8700    1.3950 H   0  0  0  0  0  0  0  0  0  0  0  0
   21.2880   15.6060   -0.3640 H   0  0  0  0  0  0  0  0  0  0  0  0
   21.5430   18.3430    0.9540 H   0  0  0  0  0  0  0  0  0  0  0  0
   21.6220   17.9840   -0.7880 H   0  0  0  0  0  0  0  0  0  0  0  0
   23.6770   16.6650   -0.4400 H   0  0  0  0  0  0  0  0  0  0  0  0
   23.5880   16.9640    1.3120 H   0  0  0  0  0  0  0  0  0  0  0  0
   23.7090   19.4350    0.8300 H   0  0  0  0  0  0  0  0  0  0  0  0
   23.9750   19.0400   -0.8860 H   0  0  0  0  0  0  0  0  0  0  0  0
   26.0380   17.8410   -0.3200 H   0  0  0  0  0  0  0  0  0  0  0  0
   25.7590   18.1350    1.4130 H   0  0  0  0  0  0  0  0  0  0  0  0
   27.0060   19.3540   -1.5060 H   0  0  0  0  0  0  0  0  0  0  0  0
   28.3840   20.9690   -2.0600 H   0  0  0  0  0  0  0  0  0  0  0  0
   27.2820   23.1010    0.9620 H   0  0  0  0  0  0  0  0  0  0  0  0
   27.7040   22.0790    2.3570 H   0  0  0  0  0  0  0  0  0  0  0  0
   28.1140   24.3670    3.1540 H   0  0  0  0  0  0  0  0  0  0  0  0
   29.3730   24.7970    0.6900 H   0  0  0  0  0  0  0  0  0  0  0  0
   30.8070   24.2590    2.7610 H   0  0  0  0  0  0  0  0  0  0  0  0
   30.0370   22.9150    3.6370 H   0  0  0  0  0  0  0  0  0  0  0  0
   31.1160   22.9450    0.8100 H   0  0  0  0  0  0  0  0  0  0  0  0
   30.9180   20.2210    0.3440 H   0  0  0  0  0  0  0  0  0  0  0  0
   32.6070   19.0400    2.4790 H   0  0  0  0  0  0  0  0  0  0  0  0
   32.0890   18.2510    0.9700 H   0  0  0  0  0  0  0  0  0  0  0  0
   33.2780   18.6980   -1.1430 H   0  0  0  0  0  0  0  0  0  0  0  0
   35.3290   19.4930   -2.2450 H   0  0  0  0  0  0  0  0  0  0  0  0
   37.2980   18.4230   -1.6400 H   0  0  0  0  0  0  0  0  0  0  0  0
   39.0760   18.3960   -1.6930 H   0  0  0  0  0  0  0  0  0  0  0  0
   38.1450   18.6480   -3.1890 H   0  0  0  0  0  0  0  0  0  0  0  0
   39.7990   23.0880   -2.3890 H   0  0  0  0  0  0  0  0  0  0  0  0
   36.4590   21.5450    1.3400 H   0  0  0  0  0  0  0  0  0  0  0  0
   34.4100   20.7460    2.4400 H   0  0  0  0  0  0  0  0  0  0  0  0
   25.9890   22.8610   -3.7490 H   0  0  0  0  0  0  0  0  0  0  0  0
   26.0550   21.1330   -3.3280 H   0  0  0  0  0  0  0  0  0  0  0  0
   27.5290   21.9760   -3.8600 H   0  0  0  0  0  0  0  0  0  0  0  0
   27.0090   24.5500   -2.3370 H   0  0  0  0  0  0  0  0  0  0  0  0
   28.5570   23.6880   -2.5070 H   0  0  0  0  0  0  0  0  0  0  0  0
   27.9430   24.1030   -0.8890 H   0  0  0  0  0  0  0  0  0  0  0  0
   25.0210   23.4930   -1.7100 H   0  0  0  0  0  0  0  0  0  0  0  0
   25.6550   22.9440   -0.1400 H   0  0  0  0  0  0  0  0  0  0  0  0
   24.9350   21.7710   -1.2680 H   0  0  0  0  0  0  0  0  0  0  0  0
   14.1510   16.0690    2.6930 H   0  0  0  0  0  0  0  0  0  0  0  0
   15.0350   16.6360    1.2560 H   0  0  0  0  0  0  0  0  0  0  0  0
   13.3560   15.5200   -0.2250 H   0  0  0  0  0  0  0  0  0  0  0  0
   12.5430   16.6630    0.8720 H   0  0  0  0  0  0  0  0  0  0  0  0
   10.8420   12.8400   -0.0660 H   0  0  0  0  0  0  0  0  0  0  0  0
    8.0750   11.0740   -1.8010 H   0  0  0  0  0  0  0  0  0  0  0  0
    9.2540   11.0440   -0.4680 H   0  0  0  0  0  0  0  0  0  0  0  0
    9.6300   11.9240   -1.9690 H   0  0  0  0  0  0  0  0  0  0  0  0
    1.1820   15.1090    0.6770 H   0  0  0  0  0  0  0  0  0  0  0  0
  1  2  2  0  0  0  0
  1 81  1  0  0  0  0
  1 82  1  0  0  0  0
  2  3  1  0  0  0  0
  2 83  1  0  0  0  0
  3  4  2  0  0  0  0
  3  5  1  0  0  0  0
  5  6  1  0  0  0  0
  5 84  1  0  0  0  0
  6  7  1  0  0  0  0
  6 80  2  0  0  0  0
  7  8  2  0  0  0  0
  7 85  1  0  0  0  0
  8  9  1  0  0  0  0
  8 86  1  0  0  0  0
  9 10  2  0  0  0  0
  9 87  1  0  0  0  0
 10 11  1  0  0  0  0
 10 80  1  0  0  0  0
 11 12  1  0  0  0  0
 11 79  1  0  0  0  0
 12 13  2  0  0  0  0
 12 14  1  0  0  0  0
 14 15  2  0  0  0  0
 14 88  1  0  0  0  0
 15 16  1  0  0  0  0
 15 17  1  0  0  0  0
 16 89  1  0  0  0  0
 16 90  1  0  0  0  0
 16 91  1  0  0  0  0
 17 18  2  0  0  0  0
 17 79  1  0  0  0  0
 18 19  1  0  0  0  0
 18 92  1  0  0  0  0
 19 20  2  0  0  0  0
 20 21  1  0  0  0  0
 20 78  1  0  0  0  0
 21 22  1  0  0  0  0
 21 93  1  0  0  0  0
 22 23  1  0  0  0  0
 22 75  2  0  0  0  0
 23 24  2  0  0  0  0
 23 94  1  0  0  0  0
 24 25  1  0  0  0  0
 24 95  1  0  0  0  0
 25 26  1  0  0  0  0
 25 74  2  0  0  0  0
 26 27  1  0  0  0  0
 26 73  1  0  0  0  0
 27 28  1  0  0  0  0
 27 96  1  0  0  0  0
 27 97  1  0  0  0  0
 28 29  1  0  0  0  0
 28 98  1  0  0  0  0
 28 99  1  0  0  0  0
 29 30  1  0  0  0  0
 29 72  1  0  0  0  0
 30 31  2  0  0  0  0
 30 32  1  0  0  0  0
 32 33  1  0  0  0  0
 32100  1  0  0  0  0
 32101  1  0  0  0  0
 33 34  1  0  0  0  0
 33102  1  0  0  0  0
 33103  1  0  0  0  0
 34 35  1  0  0  0  0
 34104  1  0  0  0  0
 34105  1  0  0  0  0
 35 36  1  0  0  0  0
 35106  1  0  0  0  0
 35107  1  0  0  0  0
 36 37  1  0  0  0  0
 36108  1  0  0  0  0
 36109  1  0  0  0  0
 37 38  1  0  0  0  0
 37110  1  0  0  0  0
 37111  1  0  0  0  0
 38 39  1  0  0  0  0
 38112  1  0  0  0  0
 38113  1  0  0  0  0
 39 40  1  0  0  0  0
 39114  1  0  0  0  0
 39115  1  0  0  0  0
 40 41  2  0  0  0  0
 40 42  1  0  0  0  0
 42 43  1  0  0  0  0
 42116  1  0  0  0  0
 43 44  1  0  0  0  0
 43 68  1  0  0  0  0
 43117  1  0  0  0  0
 44 45  2  0  0  0  0
 44 46  1  0  0  0  0
 46 47  1  0  0  0  0
 46 51  1  0  0  0  0
 47 48  1  0  0  0  0
 47118  1  0  0  0  0
 47119  1  0  0  0  0
 48 49  1  0  0  0  0
 48 50  1  0  0  0  0
 48120  1  0  0  0  0
 49121  1  0  0  0  0
 50 51  1  0  0  0  0
 50122  1  0  0  0  0
 50123  1  0  0  0  0
 51 52  1  0  0  0  0
 51124  1  0  0  0  0
 52 53  2  0  0  0  0
 52 54  1  0  0  0  0
 54 55  1  0  0  0  0
 54125  1  0  0  0  0
 55 56  1  0  0  0  0
 55126  1  0  0  0  0
 55127  1  0  0  0  0
 56 57  1  0  0  0  0
 56 67  2  0  0  0  0
 57 58  2  0  0  0  0
 57128  1  0  0  0  0
 58 59  1  0  0  0  0
 58129  1  0  0  0  0
 59 60  1  0  0  0  0
 59 66  2  0  0  0  0
 60 61  2  0  0  0  0
 60 65  1  0  0  0  0
 61 62  1  0  0  0  0
 61 63  1  0  0  0  0
 62130  1  0  0  0  0
 62131  1  0  0  0  0
 62132  1  0  0  0  0
 63 64  2  0  0  0  0
 64 65  1  0  0  0  0
 64133  1  0  0  0  0
 66 67  1  0  0  0  0
 66134  1  0  0  0  0
 67135  1  0  0  0  0
 68 69  1  0  0  0  0
 68 70  1  0  0  0  0
 68 71  1  0  0  0  0
 69136  1  0  0  0  0
 69137  1  0  0  0  0
 69138  1  0  0  0  0
 70139  1  0  0  0  0
 70140  1  0  0  0  0
 70141  1  0  0  0  0
 71142  1  0  0  0  0
 71143  1  0  0  0  0
 71144  1  0  0  0  0
 72 73  1  0  0  0  0
 72145  1  0  0  0  0
 72146  1  0  0  0  0
 73147  1  0  0  0  0
 73148  1  0  0  0  0
 74 75  1  0  0  0  0
 74149  1  0  0  0  0
 75 76  1  0  0  0  0
 76 77  1  0  0  0  0
 77150  1  0  0  0  0
 77151  1  0  0  0  0
 77152  1  0  0  0  0
 78 79  2  0  0  0  0
 80153  1  0  0  0  0
M  END
>  <Compound ID>
581

>  <Uniprot>
P00533

>  <Target>
EGFR L858R/T790M

>  <E3 ligase>
VHL

>  <DC50 (nM)>
69

>  <Assay (DC50/Dmax)>
Degradation of EGFR L858R/T790M in H1975 cells after 16h treatment

>  <Article DOI>
10.1016/j.ejmech.2020.112199

>  <Molecular Weight>
1108.38

>  <Exact Mass>
1107.5364

>  <XLogP3>
7.4400001

>  <Heavy Atom Count>
80

>  <Ring Count>
8

>  <Hydrogen Bond Acceptor Count>
15

>  <Hydrogen Bond Donor Count>
5

>  <Rotatable Bond Count>
22

>  <Topological Polar Surface Area>
233.32001

>  <Molecular Formula>
C60H73N11O8S

>  <InChI>
InChI=1S/C60H73N11O8S/c1-8-50(73)64-42-16-15-17-44(31-42)71-53(76)30-38(2)46-35-62-59(67-56(46)71)65-47-25-24-43(32-49(47)79-7)68-26-28-69(29-27-68)52(75)19-14-12-10-9-11-13-18-51(74)66-55(60(4,5)6)58(78)70-36-45(72)33-48(70)57(77)61-34-40-20-22-41(23-21-40)54-39(3)63-37-80-54/h8,15-17,20-25,30-32,35,37,45,48,55,72H,1,9-14,18-19,26-29,33-34,36H2,2-7H3,(H,61,77)(H,64,73)(H,66,74)(H,62,65,67)/t45-,48+,55-/m1/s1

>  <InChI Key>
NXHJICMMHCOKPI-ZRJZPVMUSA-N

$$$$
582
  MOE2018           3D

147154  0  0  1  0  0  0  0  0999 V2000
    1.4130    7.6270   -0.0360 C   0  0  0  0  0  0  0  0  0  0  0  0
    2.2300    8.6810   -0.2470 C   0  0  0  0  0  0  0  0  0  0  0  0
    2.1500    9.9280    0.5020 C   0  0  0  0  0  0  0  0  0  0  0  0
    1.3390   10.1220    1.3940 O   0  0  0  0  0  0  0  0  0  0  0  0
    3.0390   10.9170    0.1480 N   0  0  0  0  0  0  0  0  0  0  0  0
    3.2000   12.1930    0.7400 C   0  0  0  0  0  0  0  0  0  0  0  0
    2.9790   12.4200    2.1050 C   0  0  0  0  0  0  0  0  0  0  0  0
    3.1860   13.6910    2.6380 C   0  0  0  0  0  0  0  0  0  0  0  0
    3.6190   14.7320    1.8200 C   0  0  0  0  0  0  0  0  0  0  0  0
    3.8410   14.4850    0.4640 C   0  0  0  0  0  0  0  0  0  0  0  0
    4.3030   15.5460   -0.3750 N   0  0  0  0  0  0  0  0  0  0  0  0
    3.4250   16.5760   -0.7280 C   0  0  0  0  0  0  0  0  0  0  0  0
    2.2770   16.5560   -0.2850 O   0  0  0  0  0  0  0  0  0  0  0  0
    3.8950   17.6180   -1.5990 C   0  0  0  0  0  0  0  0  0  0  0  0
    5.1650   17.6390   -2.0850 C   0  0  0  0  0  0  0  0  0  0  0  0
    5.6160   18.7610   -3.0040 C   0  0  0  0  0  0  0  0  0  0  0  0
    6.0660   16.5780   -1.7080 C   0  0  0  0  0  0  0  0  0  0  0  0
    7.3940   16.4930   -2.1430 C   0  0  0  0  0  0  0  0  0  0  0  0
    8.1670   15.5030   -1.7630 N   0  0  0  0  0  0  0  0  0  0  0  0
    7.6630   14.5660   -0.9390 C   0  0  0  0  0  0  0  0  0  0  0  0
    8.4330   13.5330   -0.5040 N   0  0  0  0  0  0  0  0  0  0  0  0
    9.8020   13.2440   -0.7610 C   0  0  0  0  0  0  0  0  0  0  0  0
   10.3980   13.4990   -1.9980 C   0  0  0  0  0  0  0  0  0  0  0  0
   11.7410   13.1930   -2.1940 C   0  0  0  0  0  0  0  0  0  0  0  0
   12.4980   12.6270   -1.1600 C   0  0  0  0  0  0  0  0  0  0  0  0
   13.8640   12.3470   -1.4130 N   0  0  0  0  0  0  0  0  0  0  0  0
   14.5640   11.4010   -0.4930 C   0  0  0  0  0  0  0  0  0  0  0  0
   15.8680   10.9490   -1.1880 C   0  0  0  0  0  0  0  0  0  0  0  0
   16.6680   12.1780   -1.4200 N   0  0  0  0  0  0  0  0  0  0  0  0
   17.7210   12.4720   -0.6310 C   0  0  0  0  0  0  0  0  0  0  0  0
   18.0560   11.7230    0.2810 O   0  0  0  0  0  0  0  0  0  0  0  0
   18.5120   13.7660   -0.8760 C   0  0  0  0  0  0  0  0  0  0  0  0
   19.6910   13.9740    0.0940 C   0  0  0  0  0  0  0  0  0  0  0  0
   20.5140   15.2200   -0.2670 C   0  0  0  0  0  0  0  0  0  0  0  0
   21.6030   15.4530    0.7900 C   0  0  0  0  0  0  0  0  0  0  0  0
   22.5280   16.6100    0.3880 C   0  0  0  0  0  0  0  0  0  0  0  0
   23.5350   16.9090    1.5150 C   0  0  0  0  0  0  0  0  0  0  0  0
   24.5880   17.9390    1.1240 C   0  0  0  0  0  0  0  0  0  0  0  0
   25.7760   17.6510    1.1450 O   0  0  0  0  0  0  0  0  0  0  0  0
   24.1670   19.1600    0.8100 N   0  0  0  0  0  0  0  0  0  0  0  0
   25.0710   20.2250    0.3310 C   0  0  2  0  0  0  0  0  0  0  0  0
   26.1510   20.7110    1.3550 C   0  0  0  0  0  0  0  0  0  0  0  0
   27.2010   21.1740    0.9170 O   0  0  0  0  0  0  0  0  0  0  0  0
   26.0290   20.5470    2.6920 N   0  0  0  0  0  0  0  0  0  0  0  0
   24.8200   20.3210    3.4710 C   0  0  0  0  0  0  0  0  0  0  0  0
   25.0470   21.0890    4.7710 C   0  0  2  0  0  0  0  0  0  0  0  0
   24.7460   22.4580    4.5960 O   0  0  0  0  0  0  0  0  0  0  0  0
   26.5450   20.9120    5.0010 C   0  0  0  0  0  0  0  0  0  0  0  0
   27.1660   20.7810    3.6000 C   0  0  1  0  0  0  0  0  0  0  0  0
   28.2660   19.6830    3.5680 C   0  0  0  0  0  0  0  0  0  0  0  0
   29.2660   19.7990    4.2750 O   0  0  0  0  0  0  0  0  0  0  0  0
   28.0620   18.5880    2.8290 N   0  0  0  0  0  0  0  0  0  0  0  0
   29.0790   17.5790    2.5900 C   0  0  0  0  0  0  0  0  0  0  0  0
   29.6600   17.9620    1.2450 C   0  0  0  0  0  0  0  0  0  0  0  0
   29.0470   17.5440    0.0650 C   0  0  0  0  0  0  0  0  0  0  0  0
   29.5770   17.9050   -1.1690 C   0  0  0  0  0  0  0  0  0  0  0  0
   30.7330   18.6900   -1.2500 C   0  0  0  0  0  0  0  0  0  0  0  0
   31.2970   19.0640   -2.5420 C   0  0  0  0  0  0  0  0  0  0  0  0
   31.5560   18.2800   -3.6380 C   0  0  0  0  0  0  0  0  0  0  0  0
   31.3170   16.7900   -3.7140 C   0  0  0  0  0  0  0  0  0  0  0  0
   32.0660   18.9310   -4.7140 N   0  0  0  0  0  0  0  0  0  0  0  0
   32.2150   20.1990   -4.4570 C   0  0  0  0  0  0  0  0  0  0  0  0
   31.7410   20.6860   -2.8780 S   0  0  0  0  0  0  0  0  0  0  0  0
   31.3310   19.1190   -0.0600 C   0  0  0  0  0  0  0  0  0  0  0  0
   30.7990   18.7600    1.1730 C   0  0  0  0  0  0  0  0  0  0  0  0
   24.2260   21.3820   -0.3040 C   0  0  0  0  0  0  0  0  0  0  0  0
   25.1280   22.4420   -0.9670 C   0  0  0  0  0  0  0  0  0  0  0  0
   23.3300   22.1110    0.7160 C   0  0  0  0  0  0  0  0  0  0  0  0
   23.3160   20.8390   -1.4290 C   0  0  0  0  0  0  0  0  0  0  0  0
   16.0040   13.1130   -2.3630 C   0  0  0  0  0  0  0  0  0  0  0  0
   14.6840   13.5650   -1.6860 C   0  0  0  0  0  0  0  0  0  0  0  0
   11.8970   12.3450    0.0750 C   0  0  0  0  0  0  0  0  0  0  0  0
   10.5500   12.6480    0.2650 C   0  0  0  0  0  0  0  0  0  0  0  0
    9.9050   12.3690    1.4720 O   0  0  0  0  0  0  0  0  0  0  0  0
   10.5400   11.7880    2.6340 C   0  0  0  0  0  0  0  0  0  0  0  0
    6.4290   14.5570   -0.4740 N   0  0  0  0  0  0  0  0  0  0  0  0
    5.6270   15.5510   -0.8550 C   0  0  0  0  0  0  0  0  0  0  0  0
    3.6330   13.2250   -0.0900 C   0  0  0  0  0  0  0  0  0  0  0  0
    0.6470    7.6810    0.7240 H   0  0  0  0  0  0  0  0  0  0  0  0
    1.5250    6.7300   -0.6270 H   0  0  0  0  0  0  0  0  0  0  0  0
    2.9850    8.5950   -1.0140 H   0  0  0  0  0  0  0  0  0  0  0  0
    3.6510   10.7070   -0.6280 H   0  0  0  0  0  0  0  0  0  0  0  0
    2.6490   11.6130    2.7420 H   0  0  0  0  0  0  0  0  0  0  0  0
    3.0100   13.8690    3.6890 H   0  0  0  0  0  0  0  0  0  0  0  0
    3.7810   15.7180    2.2300 H   0  0  0  0  0  0  0  0  0  0  0  0
    3.2170   18.4110   -1.8770 H   0  0  0  0  0  0  0  0  0  0  0  0
    6.6570   18.6040   -3.2860 H   0  0  0  0  0  0  0  0  0  0  0  0
    5.5200   19.7150   -2.4860 H   0  0  0  0  0  0  0  0  0  0  0  0
    4.9950   18.7690   -3.9000 H   0  0  0  0  0  0  0  0  0  0  0  0
    7.7880   17.2530   -2.8010 H   0  0  0  0  0  0  0  0  0  0  0  0
    7.9610   12.8690    0.0930 H   0  0  0  0  0  0  0  0  0  0  0  0
    9.8180   13.9320   -2.8000 H   0  0  0  0  0  0  0  0  0  0  0  0
   12.2030   13.3930   -3.1490 H   0  0  0  0  0  0  0  0  0  0  0  0
   14.7980   11.9020    0.4460 H   0  0  0  0  0  0  0  0  0  0  0  0
   13.9300   10.5370   -0.2960 H   0  0  0  0  0  0  0  0  0  0  0  0
   15.6400   10.4630   -2.1370 H   0  0  0  0  0  0  0  0  0  0  0  0
   16.4160   10.2580   -0.5480 H   0  0  0  0  0  0  0  0  0  0  0  0
   18.9050   13.7400   -1.8920 H   0  0  0  0  0  0  0  0  0  0  0  0
   17.8300   14.6100   -0.7720 H   0  0  0  0  0  0  0  0  0  0  0  0
   19.3000   14.0900    1.1050 H   0  0  0  0  0  0  0  0  0  0  0  0
   20.3400   13.0990    0.0540 H   0  0  0  0  0  0  0  0  0  0  0  0
   20.9810   15.0750   -1.2410 H   0  0  0  0  0  0  0  0  0  0  0  0
   19.8560   16.0880   -0.3060 H   0  0  0  0  0  0  0  0  0  0  0  0
   22.1960   14.5440    0.8960 H   0  0  0  0  0  0  0  0  0  0  0  0
   21.1290   15.6910    1.7420 H   0  0  0  0  0  0  0  0  0  0  0  0
   21.9280   17.5000    0.1970 H   0  0  0  0  0  0  0  0  0  0  0  0
   23.0720   16.3370   -0.5170 H   0  0  0  0  0  0  0  0  0  0  0  0
   24.0410   15.9810    1.7820 H   0  0  0  0  0  0  0  0  0  0  0  0
   22.9860   17.2850    2.3780 H   0  0  0  0  0  0  0  0  0  0  0  0
   23.1830   19.3690    0.9030 H   0  0  0  0  0  0  0  0  0  0  0  0
   25.6960   19.7820   -0.4450 H   0  0  0  0  0  0  0  0  0  0  0  0
   23.9460   20.7060    2.9450 H   0  0  0  0  0  0  0  0  0  0  0  0
   24.6850   19.2580    3.6710 H   0  0  0  0  0  0  0  0  0  0  0  0
   24.4270   20.7390    5.5960 H   0  0  0  0  0  0  0  0  0  0  0  0
   25.2850   22.7830    3.8710 H   0  0  0  0  0  0  0  0  0  0  0  0
   26.9550   21.7790    5.5200 H   0  0  0  0  0  0  0  0  0  0  0  0
   26.7360   20.0130    5.5880 H   0  0  0  0  0  0  0  0  0  0  0  0
   27.7030   21.6760    3.2850 H   0  0  0  0  0  0  0  0  0  0  0  0
   27.1510   18.4550    2.4140 H   0  0  0  0  0  0  0  0  0  0  0  0
   29.8440   17.6080    3.3660 H   0  0  0  0  0  0  0  0  0  0  0  0
   28.6370   16.5830    2.5530 H   0  0  0  0  0  0  0  0  0  0  0  0
   28.1550   16.9360    0.1090 H   0  0  0  0  0  0  0  0  0  0  0  0
   29.0910   17.5760   -2.0750 H   0  0  0  0  0  0  0  0  0  0  0  0
   30.9080   16.4390   -2.7670 H   0  0  0  0  0  0  0  0  0  0  0  0
   32.2600   16.2810   -3.9140 H   0  0  0  0  0  0  0  0  0  0  0  0
   30.6110   16.5760   -4.5160 H   0  0  0  0  0  0  0  0  0  0  0  0
   32.6080   20.8950   -5.1840 H   0  0  0  0  0  0  0  0  0  0  0  0
   32.2160   19.7360   -0.1000 H   0  0  0  0  0  0  0  0  0  0  0  0
   31.2720   19.1020    2.0810 H   0  0  0  0  0  0  0  0  0  0  0  0
   24.5080   23.2290   -1.3970 H   0  0  0  0  0  0  0  0  0  0  0  0
   25.7200   21.9750   -1.7540 H   0  0  0  0  0  0  0  0  0  0  0  0
   25.7940   22.8720   -0.2190 H   0  0  0  0  0  0  0  0  0  0  0  0
   22.7720   22.9000    0.2110 H   0  0  0  0  0  0  0  0  0  0  0  0
   23.9510   22.5480    1.4980 H   0  0  0  0  0  0  0  0  0  0  0  0
   22.6330   21.4010    1.1600 H   0  0  0  0  0  0  0  0  0  0  0  0
   22.7380   21.6590   -1.8560 H   0  0  0  0  0  0  0  0  0  0  0  0
   22.6370   20.0910   -1.0180 H   0  0  0  0  0  0  0  0  0  0  0  0
   23.9310   20.3840   -2.2060 H   0  0  0  0  0  0  0  0  0  0  0  0
   16.6440   13.9750   -2.5510 H   0  0  0  0  0  0  0  0  0  0  0  0
   15.7890   12.6080   -3.3050 H   0  0  0  0  0  0  0  0  0  0  0  0
   14.1390   14.2370   -2.3500 H   0  0  0  0  0  0  0  0  0  0  0  0
   14.9050   14.0790   -0.7510 H   0  0  0  0  0  0  0  0  0  0  0  0
   12.4730   11.8970    0.8720 H   0  0  0  0  0  0  0  0  0  0  0  0
    9.8060   11.6800    3.4330 H   0  0  0  0  0  0  0  0  0  0  0  0
   11.3490   12.4380    2.9690 H   0  0  0  0  0  0  0  0  0  0  0  0
   10.9440   10.8090    2.3760 H   0  0  0  0  0  0  0  0  0  0  0  0
    3.8040   13.0510   -1.1420 H   0  0  0  0  0  0  0  0  0  0  0  0
  1  2  2  0  0  0  0
  1 79  1  0  0  0  0
  1 80  1  0  0  0  0
  2  3  1  0  0  0  0
  2 81  1  0  0  0  0
  3  4  2  0  0  0  0
  3  5  1  0  0  0  0
  5  6  1  0  0  0  0
  5 82  1  0  0  0  0
  6  7  1  0  0  0  0
  6 78  2  0  0  0  0
  7  8  2  0  0  0  0
  7 83  1  0  0  0  0
  8  9  1  0  0  0  0
  8 84  1  0  0  0  0
  9 10  2  0  0  0  0
  9 85  1  0  0  0  0
 10 11  1  0  0  0  0
 10 78  1  0  0  0  0
 11 12  1  0  0  0  0
 11 77  1  0  0  0  0
 12 13  2  0  0  0  0
 12 14  1  0  0  0  0
 14 15  2  0  0  0  0
 14 86  1  0  0  0  0
 15 16  1  0  0  0  0
 15 17  1  0  0  0  0
 16 87  1  0  0  0  0
 16 88  1  0  0  0  0
 16 89  1  0  0  0  0
 17 18  2  0  0  0  0
 17 77  1  0  0  0  0
 18 19  1  0  0  0  0
 18 90  1  0  0  0  0
 19 20  2  0  0  0  0
 20 21  1  0  0  0  0
 20 76  1  0  0  0  0
 21 22  1  0  0  0  0
 21 91  1  0  0  0  0
 22 23  1  0  0  0  0
 22 73  2  0  0  0  0
 23 24  2  0  0  0  0
 23 92  1  0  0  0  0
 24 25  1  0  0  0  0
 24 93  1  0  0  0  0
 25 26  1  0  0  0  0
 25 72  2  0  0  0  0
 26 27  1  0  0  0  0
 26 71  1  0  0  0  0
 27 28  1  0  0  0  0
 27 94  1  0  0  0  0
 27 95  1  0  0  0  0
 28 29  1  0  0  0  0
 28 96  1  0  0  0  0
 28 97  1  0  0  0  0
 29 30  1  0  0  0  0
 29 70  1  0  0  0  0
 30 31  2  0  0  0  0
 30 32  1  0  0  0  0
 32 33  1  0  0  0  0
 32 98  1  0  0  0  0
 32 99  1  0  0  0  0
 33 34  1  0  0  0  0
 33100  1  0  0  0  0
 33101  1  0  0  0  0
 34 35  1  0  0  0  0
 34102  1  0  0  0  0
 34103  1  0  0  0  0
 35 36  1  0  0  0  0
 35104  1  0  0  0  0
 35105  1  0  0  0  0
 36 37  1  0  0  0  0
 36106  1  0  0  0  0
 36107  1  0  0  0  0
 37 38  1  0  0  0  0
 37108  1  0  0  0  0
 37109  1  0  0  0  0
 38 39  2  0  0  0  0
 38 40  1  0  0  0  0
 40 41  1  0  0  0  0
 40110  1  0  0  0  0
 41 42  1  0  0  0  0
 41 66  1  0  0  0  0
 41111  1  0  0  0  0
 42 43  2  0  0  0  0
 42 44  1  0  0  0  0
 44 45  1  0  0  0  0
 44 49  1  0  0  0  0
 45 46  1  0  0  0  0
 45112  1  0  0  0  0
 45113  1  0  0  0  0
 46 47  1  0  0  0  0
 46 48  1  0  0  0  0
 46114  1  0  0  0  0
 47115  1  0  0  0  0
 48 49  1  0  0  0  0
 48116  1  0  0  0  0
 48117  1  0  0  0  0
 49 50  1  0  0  0  0
 49118  1  0  0  0  0
 50 51  2  0  0  0  0
 50 52  1  0  0  0  0
 52 53  1  0  0  0  0
 52119  1  0  0  0  0
 53 54  1  0  0  0  0
 53120  1  0  0  0  0
 53121  1  0  0  0  0
 54 55  1  0  0  0  0
 54 65  2  0  0  0  0
 55 56  2  0  0  0  0
 55122  1  0  0  0  0
 56 57  1  0  0  0  0
 56123  1  0  0  0  0
 57 58  1  0  0  0  0
 57 64  2  0  0  0  0
 58 59  2  0  0  0  0
 58 63  1  0  0  0  0
 59 60  1  0  0  0  0
 59 61  1  0  0  0  0
 60124  1  0  0  0  0
 60125  1  0  0  0  0
 60126  1  0  0  0  0
 61 62  2  0  0  0  0
 62 63  1  0  0  0  0
 62127  1  0  0  0  0
 64 65  1  0  0  0  0
 64128  1  0  0  0  0
 65129  1  0  0  0  0
 66 67  1  0  0  0  0
 66 68  1  0  0  0  0
 66 69  1  0  0  0  0
 67130  1  0  0  0  0
 67131  1  0  0  0  0
 67132  1  0  0  0  0
 68133  1  0  0  0  0
 68134  1  0  0  0  0
 68135  1  0  0  0  0
 69136  1  0  0  0  0
 69137  1  0  0  0  0
 69138  1  0  0  0  0
 70 71  1  0  0  0  0
 70139  1  0  0  0  0
 70140  1  0  0  0  0
 71141  1  0  0  0  0
 71142  1  0  0  0  0
 72 73  1  0  0  0  0
 72143  1  0  0  0  0
 73 74  1  0  0  0  0
 74 75  1  0  0  0  0
 75144  1  0  0  0  0
 75145  1  0  0  0  0
 75146  1  0  0  0  0
 76 77  2  0  0  0  0
 78147  1  0  0  0  0
M  END
>  <Compound ID>
582

>  <Uniprot>
P00533

>  <Target>
EGFR L858R/T790M

>  <E3 ligase>
VHL

>  <DC50 (nM)>
235

>  <Assay (DC50/Dmax)>
Degradation of EGFR L858R/T790M in H1975 cells after 16h treatment

>  <Article DOI>
10.1016/j.ejmech.2020.112199

>  <Molecular Weight>
1080.326

>  <Exact Mass>
1079.5051

>  <XLogP3>
6.3600001

>  <Heavy Atom Count>
78

>  <Ring Count>
8

>  <Hydrogen Bond Acceptor Count>
15

>  <Hydrogen Bond Donor Count>
5

>  <Rotatable Bond Count>
20

>  <Topological Polar Surface Area>
233.32001

>  <Molecular Formula>
C58H69N11O8S

>  <InChI>
InChI=1S/C58H69N11O8S/c1-8-48(71)62-40-14-13-15-42(29-40)69-51(74)28-36(2)44-33-60-57(65-54(44)69)63-45-23-22-41(30-47(45)77-7)66-24-26-67(27-25-66)50(73)17-12-10-9-11-16-49(72)64-53(58(4,5)6)56(76)68-34-43(70)31-46(68)55(75)59-32-38-18-20-39(21-19-38)52-37(3)61-35-78-52/h8,13-15,18-23,28-30,33,35,43,46,53,70H,1,9-12,16-17,24-27,31-32,34H2,2-7H3,(H,59,75)(H,62,71)(H,64,72)(H,60,63,65)/t43-,46+,53-/m1/s1

>  <InChI Key>
HQDMTJMOYXRLMD-BSDSDUADSA-N

$$$$
583
  MOE2018           3D

141148  0  0  1  0  0  0  0  0999 V2000
   -0.2530  -10.8560   -1.3730 C   0  0  0  0  0  0  0  0  0  0  0  0
   -0.7650  -12.1050   -1.3660 C   0  0  0  0  0  0  0  0  0  0  0  0
   -1.7920  -12.5610   -2.2990 C   0  0  0  0  0  0  0  0  0  0  0  0
   -2.2030  -11.8970   -3.2350 O   0  0  0  0  0  0  0  0  0  0  0  0
   -2.3570  -13.7970   -2.1950 N   0  0  0  0  0  0  0  0  0  0  0  0
   -2.1910  -14.7130   -1.1420 C   0  0  0  0  0  0  0  0  0  0  0  0
   -2.4630  -14.3300    0.1760 C   0  0  0  0  0  0  0  0  0  0  0  0
   -2.3000  -15.2530    1.2070 C   0  0  0  0  0  0  0  0  0  0  0  0
   -1.8720  -16.5490    0.9250 C   0  0  0  0  0  0  0  0  0  0  0  0
   -1.6140  -16.9090   -0.4000 C   0  0  0  0  0  0  0  0  0  0  0  0
   -1.1670  -18.2310   -0.6900 N   0  0  0  0  0  0  0  0  0  0  0  0
   -2.0840  -19.1790   -1.1500 C   0  0  0  0  0  0  0  0  0  0  0  0
   -3.2600  -18.8440   -1.2900 O   0  0  0  0  0  0  0  0  0  0  0  0
   -1.6160  -20.5070   -1.4460 C   0  0  0  0  0  0  0  0  0  0  0  0
   -0.3120  -20.8630   -1.3000 C   0  0  0  0  0  0  0  0  0  0  0  0
    0.1400  -22.2760   -1.6280 C   0  0  0  0  0  0  0  0  0  0  0  0
    0.6280  -19.8740   -0.8320 C   0  0  0  0  0  0  0  0  0  0  0  0
    1.9940  -20.1190   -0.6490 C   0  0  0  0  0  0  0  0  0  0  0  0
    2.7970  -19.1750   -0.2190 N   0  0  0  0  0  0  0  0  0  0  0  0
    2.2860  -17.9590    0.0490 C   0  0  0  0  0  0  0  0  0  0  0  0
    3.0800  -16.9580    0.5170 N   0  0  0  0  0  0  0  0  0  0  0  0
    4.4570  -16.9950    0.8690 C   0  0  0  0  0  0  0  0  0  0  0  0
    5.3920  -17.7100    0.1200 C   0  0  0  0  0  0  0  0  0  0  0  0
    6.7290  -17.7200    0.5060 C   0  0  0  0  0  0  0  0  0  0  0  0
    7.1390  -17.0020    1.6410 C   0  0  0  0  0  0  0  0  0  0  0  0
    8.4880  -16.9930    2.0740 N   0  0  0  0  0  0  0  0  0  0  0  0
    9.1340  -15.6540    1.9690 C   0  0  0  0  0  0  0  0  0  0  0  0
   10.4110  -15.6740    2.8460 C   0  0  0  0  0  0  0  0  0  0  0  0
   11.2750  -16.7590    2.3130 N   0  0  0  0  0  0  0  0  0  0  0  0
   12.3650  -16.5830    1.5410 C   0  0  0  0  0  0  0  0  0  0  0  0
   12.8960  -17.5290    0.9680 O   0  0  0  0  0  0  0  0  0  0  0  0
   12.9430  -15.1710    1.3660 C   0  0  0  0  0  0  0  0  0  0  0  0
   14.2040  -15.1070    0.4840 C   0  0  0  0  0  0  0  0  0  0  0  0
   14.7370  -13.6700    0.3960 C   0  0  0  0  0  0  0  0  0  0  0  0
   15.9620  -13.5850   -0.5330 C   0  0  0  0  0  0  0  0  0  0  0  0
   16.5560  -12.1820   -0.6500 C   0  0  0  0  0  0  0  0  0  0  0  0
   16.1400  -11.2680    0.0430 O   0  0  0  0  0  0  0  0  0  0  0  0
   17.5070  -12.0290   -1.5690 N   0  0  0  0  0  0  0  0  0  0  0  0
   18.3570  -10.8490   -1.8500 C   0  0  2  0  0  0  0  0  0  0  0  0
   19.4650  -10.4540   -0.8070 C   0  0  0  0  0  0  0  0  0  0  0  0
   20.6280  -10.6810   -1.1410 O   0  0  0  0  0  0  0  0  0  0  0  0
   19.2560   -9.9530    0.4310 N   0  0  0  0  0  0  0  0  0  0  0  0
   18.0330   -9.3480    0.9430 C   0  0  0  0  0  0  0  0  0  0  0  0
   18.4830   -8.1490    1.7740 C   0  0  2  0  0  0  0  0  0  0  0  0
   18.8060   -7.0420    0.9570 O   0  0  0  0  0  0  0  0  0  0  0  0
   19.7440   -8.6940    2.4270 C   0  0  0  0  0  0  0  0  0  0  0  0
   20.3560   -9.6340    1.3730 C   0  0  1  0  0  0  0  0  0  0  0  0
   21.1230  -10.8360    2.0080 C   0  0  0  0  0  0  0  0  0  0  0  0
   21.4990  -10.7930    3.1790 O   0  0  0  0  0  0  0  0  0  0  0  0
   21.3460  -11.9180    1.2610 N   0  0  0  0  0  0  0  0  0  0  0  0
   22.1920  -13.0260    1.6810 C   0  0  0  0  0  0  0  0  0  0  0  0
   23.5400  -12.7110    1.0630 C   0  0  0  0  0  0  0  0  0  0  0  0
   24.4490  -11.9030    1.7450 C   0  0  0  0  0  0  0  0  0  0  0  0
   25.6830  -11.6010    1.1810 C   0  0  0  0  0  0  0  0  0  0  0  0
   26.0360  -12.0980   -0.0780 C   0  0  0  0  0  0  0  0  0  0  0  0
   27.3310  -11.7770   -0.6660 C   0  0  0  0  0  0  0  0  0  0  0  0
   28.2660  -12.6140   -1.2180 C   0  0  0  0  0  0  0  0  0  0  0  0
   28.1400  -14.1170   -1.3030 C   0  0  0  0  0  0  0  0  0  0  0  0
   29.3740  -12.0050   -1.7140 N   0  0  0  0  0  0  0  0  0  0  0  0
   29.3070  -10.7170   -1.5390 C   0  0  0  0  0  0  0  0  0  0  0  0
   27.8850  -10.1560   -0.7550 S   0  0  0  0  0  0  0  0  0  0  0  0
   25.1130  -12.8990   -0.7610 C   0  0  0  0  0  0  0  0  0  0  0  0
   23.8790  -13.2020   -0.1970 C   0  0  0  0  0  0  0  0  0  0  0  0
   17.6630   -9.7260   -2.7120 C   0  0  0  0  0  0  0  0  0  0  0  0
   18.4380   -8.3940   -2.6600 C   0  0  0  0  0  0  0  0  0  0  0  0
   16.1790   -9.4230   -2.4060 C   0  0  0  0  0  0  0  0  0  0  0  0
   17.6700  -10.1670   -4.1950 C   0  0  0  0  0  0  0  0  0  0  0  0
   10.6490  -18.0980    2.4500 C   0  0  0  0  0  0  0  0  0  0  0  0
    9.3800  -18.0810    1.5680 C   0  0  0  0  0  0  0  0  0  0  0  0
    6.2070  -16.2700    2.3830 C   0  0  0  0  0  0  0  0  0  0  0  0
    4.8710  -16.2600    1.9900 C   0  0  0  0  0  0  0  0  0  0  0  0
    3.9120  -15.5260    2.6890 O   0  0  0  0  0  0  0  0  0  0  0  0
    4.1560  -14.8390    3.9370 C   0  0  0  0  0  0  0  0  0  0  0  0
    1.0170  -17.6270   -0.0910 N   0  0  0  0  0  0  0  0  0  0  0  0
    0.1870  -18.5730   -0.5300 C   0  0  0  0  0  0  0  0  0  0  0  0
   -1.7730  -16.0050   -1.4470 C   0  0  0  0  0  0  0  0  0  0  0  0
   -0.6020  -10.1330   -2.0960 H   0  0  0  0  0  0  0  0  0  0  0  0
    0.5060  -10.5790   -0.6560 H   0  0  0  0  0  0  0  0  0  0  0  0
   -0.3950  -12.8050   -0.6310 H   0  0  0  0  0  0  0  0  0  0  0  0
   -2.9580  -14.0850   -2.9540 H   0  0  0  0  0  0  0  0  0  0  0  0
   -2.7970  -13.3260    0.3930 H   0  0  0  0  0  0  0  0  0  0  0  0
   -2.5060  -14.9630    2.2270 H   0  0  0  0  0  0  0  0  0  0  0  0
   -1.7410  -17.2670    1.7210 H   0  0  0  0  0  0  0  0  0  0  0  0
   -2.3230  -21.2450   -1.7950 H   0  0  0  0  0  0  0  0  0  0  0  0
    1.2110  -22.3660   -1.4480 H   0  0  0  0  0  0  0  0  0  0  0  0
   -0.0720  -22.4910   -2.6750 H   0  0  0  0  0  0  0  0  0  0  0  0
   -0.3950  -22.9850   -0.9960 H   0  0  0  0  0  0  0  0  0  0  0  0
    2.3930  -21.0990   -0.8650 H   0  0  0  0  0  0  0  0  0  0  0  0
    2.6270  -16.0620    0.6300 H   0  0  0  0  0  0  0  0  0  0  0  0
    5.0790  -18.2550   -0.7580 H   0  0  0  0  0  0  0  0  0  0  0  0
    7.4520  -18.2810   -0.0680 H   0  0  0  0  0  0  0  0  0  0  0  0
    9.4000  -15.4510    0.9320 H   0  0  0  0  0  0  0  0  0  0  0  0
    8.4510  -14.8840    2.3260 H   0  0  0  0  0  0  0  0  0  0  0  0
   10.1510  -15.8770    3.8850 H   0  0  0  0  0  0  0  0  0  0  0  0
   10.9270  -14.7160    2.7810 H   0  0  0  0  0  0  0  0  0  0  0  0
   12.1770  -14.5420    0.9120 H   0  0  0  0  0  0  0  0  0  0  0  0
   13.1960  -14.7810    2.3520 H   0  0  0  0  0  0  0  0  0  0  0  0
   14.9740  -15.7480    0.9140 H   0  0  0  0  0  0  0  0  0  0  0  0
   13.9570  -15.4580   -0.5180 H   0  0  0  0  0  0  0  0  0  0  0  0
   15.0230  -13.3360    1.3930 H   0  0  0  0  0  0  0  0  0  0  0  0
   13.9510  -13.0230    0.0070 H   0  0  0  0  0  0  0  0  0  0  0  0
   15.6620  -13.9140   -1.5280 H   0  0  0  0  0  0  0  0  0  0  0  0
   16.7320  -14.2520   -0.1470 H   0  0  0  0  0  0  0  0  0  0  0  0
   17.6720  -12.8320   -2.1590 H   0  0  0  0  0  0  0  0  0  0  0  0
   19.0800  -11.2390   -2.5660 H   0  0  0  0  0  0  0  0  0  0  0  0
   17.3960   -9.0230    0.1200 H   0  0  0  0  0  0  0  0  0  0  0  0
   17.4890  -10.0590    1.5650 H   0  0  0  0  0  0  0  0  0  0  0  0
   17.7210   -7.7890    2.4660 H   0  0  0  0  0  0  0  0  0  0  0  0
   19.4780   -7.3280    0.3330 H   0  0  0  0  0  0  0  0  0  0  0  0
   20.4330   -7.8840    2.6660 H   0  0  0  0  0  0  0  0  0  0  0  0
   19.4990   -9.2430    3.3360 H   0  0  0  0  0  0  0  0  0  0  0  0
   21.1620   -9.1680    0.8060 H   0  0  0  0  0  0  0  0  0  0  0  0
   20.9040  -11.9720    0.3540 H   0  0  0  0  0  0  0  0  0  0  0  0
   22.2640  -13.0680    2.7680 H   0  0  0  0  0  0  0  0  0  0  0  0
   21.8050  -13.9730    1.3050 H   0  0  0  0  0  0  0  0  0  0  0  0
   24.1930  -11.5090    2.7170 H   0  0  0  0  0  0  0  0  0  0  0  0
   26.3780  -10.9750    1.7210 H   0  0  0  0  0  0  0  0  0  0  0  0
   27.1940  -14.4280   -0.8590 H   0  0  0  0  0  0  0  0  0  0  0  0
   28.9650  -14.5820   -0.7630 H   0  0  0  0  0  0  0  0  0  0  0  0
   28.1700  -14.4260   -2.3480 H   0  0  0  0  0  0  0  0  0  0  0  0
   30.0900  -10.0480   -1.8640 H   0  0  0  0  0  0  0  0  0  0  0  0
   25.3630  -13.2860   -1.7380 H   0  0  0  0  0  0  0  0  0  0  0  0
   23.1790  -13.8210   -0.7380 H   0  0  0  0  0  0  0  0  0  0  0  0
   17.9230   -7.6500   -3.2680 H   0  0  0  0  0  0  0  0  0  0  0  0
   19.4460   -8.5450   -3.0470 H   0  0  0  0  0  0  0  0  0  0  0  0
   18.4930   -8.0460   -1.6290 H   0  0  0  0  0  0  0  0  0  0  0  0
   15.8250   -8.6330   -3.0680 H   0  0  0  0  0  0  0  0  0  0  0  0
   16.0800   -9.1000   -1.3700 H   0  0  0  0  0  0  0  0  0  0  0  0
   15.5840  -10.3230   -2.5640 H   0  0  0  0  0  0  0  0  0  0  0  0
   17.1930   -9.4000   -4.8040 H   0  0  0  0  0  0  0  0  0  0  0  0
   17.1240  -11.1050   -4.2980 H   0  0  0  0  0  0  0  0  0  0  0  0
   18.6990  -10.3080   -4.5270 H   0  0  0  0  0  0  0  0  0  0  0  0
   11.3360  -18.8720    2.1070 H   0  0  0  0  0  0  0  0  0  0  0  0
   10.3820  -18.2840    3.4900 H   0  0  0  0  0  0  0  0  0  0  0  0
    8.8690  -19.0410    1.6350 H   0  0  0  0  0  0  0  0  0  0  0  0
    9.6520  -17.8860    0.5310 H   0  0  0  0  0  0  0  0  0  0  0  0
    6.5210  -15.7160    3.2550 H   0  0  0  0  0  0  0  0  0  0  0  0
    3.2410  -14.3460    4.2650 H   0  0  0  0  0  0  0  0  0  0  0  0
    4.9390  -14.0940    3.7950 H   0  0  0  0  0  0  0  0  0  0  0  0
    4.4720  -15.5590    4.6920 H   0  0  0  0  0  0  0  0  0  0  0  0
   -1.5770  -16.2980   -2.4680 H   0  0  0  0  0  0  0  0  0  0  0  0
  1  2  2  0  0  0  0
  1 77  1  0  0  0  0
  1 78  1  0  0  0  0
  2  3  1  0  0  0  0
  2 79  1  0  0  0  0
  3  4  2  0  0  0  0
  3  5  1  0  0  0  0
  5  6  1  0  0  0  0
  5 80  1  0  0  0  0
  6  7  1  0  0  0  0
  6 76  2  0  0  0  0
  7  8  2  0  0  0  0
  7 81  1  0  0  0  0
  8  9  1  0  0  0  0
  8 82  1  0  0  0  0
  9 10  2  0  0  0  0
  9 83  1  0  0  0  0
 10 11  1  0  0  0  0
 10 76  1  0  0  0  0
 11 12  1  0  0  0  0
 11 75  1  0  0  0  0
 12 13  2  0  0  0  0
 12 14  1  0  0  0  0
 14 15  2  0  0  0  0
 14 84  1  0  0  0  0
 15 16  1  0  0  0  0
 15 17  1  0  0  0  0
 16 85  1  0  0  0  0
 16 86  1  0  0  0  0
 16 87  1  0  0  0  0
 17 18  2  0  0  0  0
 17 75  1  0  0  0  0
 18 19  1  0  0  0  0
 18 88  1  0  0  0  0
 19 20  2  0  0  0  0
 20 21  1  0  0  0  0
 20 74  1  0  0  0  0
 21 22  1  0  0  0  0
 21 89  1  0  0  0  0
 22 23  1  0  0  0  0
 22 71  2  0  0  0  0
 23 24  2  0  0  0  0
 23 90  1  0  0  0  0
 24 25  1  0  0  0  0
 24 91  1  0  0  0  0
 25 26  1  0  0  0  0
 25 70  2  0  0  0  0
 26 27  1  0  0  0  0
 26 69  1  0  0  0  0
 27 28  1  0  0  0  0
 27 92  1  0  0  0  0
 27 93  1  0  0  0  0
 28 29  1  0  0  0  0
 28 94  1  0  0  0  0
 28 95  1  0  0  0  0
 29 30  1  0  0  0  0
 29 68  1  0  0  0  0
 30 31  2  0  0  0  0
 30 32  1  0  0  0  0
 32 33  1  0  0  0  0
 32 96  1  0  0  0  0
 32 97  1  0  0  0  0
 33 34  1  0  0  0  0
 33 98  1  0  0  0  0
 33 99  1  0  0  0  0
 34 35  1  0  0  0  0
 34100  1  0  0  0  0
 34101  1  0  0  0  0
 35 36  1  0  0  0  0
 35102  1  0  0  0  0
 35103  1  0  0  0  0
 36 37  2  0  0  0  0
 36 38  1  0  0  0  0
 38 39  1  0  0  0  0
 38104  1  0  0  0  0
 39 40  1  0  0  0  0
 39 64  1  0  0  0  0
 39105  1  0  0  0  0
 40 41  2  0  0  0  0
 40 42  1  0  0  0  0
 42 43  1  0  0  0  0
 42 47  1  0  0  0  0
 43 44  1  0  0  0  0
 43106  1  0  0  0  0
 43107  1  0  0  0  0
 44 45  1  0  0  0  0
 44 46  1  0  0  0  0
 44108  1  0  0  0  0
 45109  1  0  0  0  0
 46 47  1  0  0  0  0
 46110  1  0  0  0  0
 46111  1  0  0  0  0
 47 48  1  0  0  0  0
 47112  1  0  0  0  0
 48 49  2  0  0  0  0
 48 50  1  0  0  0  0
 50 51  1  0  0  0  0
 50113  1  0  0  0  0
 51 52  1  0  0  0  0
 51114  1  0  0  0  0
 51115  1  0  0  0  0
 52 53  1  0  0  0  0
 52 63  2  0  0  0  0
 53 54  2  0  0  0  0
 53116  1  0  0  0  0
 54 55  1  0  0  0  0
 54117  1  0  0  0  0
 55 56  1  0  0  0  0
 55 62  2  0  0  0  0
 56 57  2  0  0  0  0
 56 61  1  0  0  0  0
 57 58  1  0  0  0  0
 57 59  1  0  0  0  0
 58118  1  0  0  0  0
 58119  1  0  0  0  0
 58120  1  0  0  0  0
 59 60  2  0  0  0  0
 60 61  1  0  0  0  0
 60121  1  0  0  0  0
 62 63  1  0  0  0  0
 62122  1  0  0  0  0
 63123  1  0  0  0  0
 64 65  1  0  0  0  0
 64 66  1  0  0  0  0
 64 67  1  0  0  0  0
 65124  1  0  0  0  0
 65125  1  0  0  0  0
 65126  1  0  0  0  0
 66127  1  0  0  0  0
 66128  1  0  0  0  0
 66129  1  0  0  0  0
 67130  1  0  0  0  0
 67131  1  0  0  0  0
 67132  1  0  0  0  0
 68 69  1  0  0  0  0
 68133  1  0  0  0  0
 68134  1  0  0  0  0
 69135  1  0  0  0  0
 69136  1  0  0  0  0
 70 71  1  0  0  0  0
 70137  1  0  0  0  0
 71 72  1  0  0  0  0
 72 73  1  0  0  0  0
 73138  1  0  0  0  0
 73139  1  0  0  0  0
 73140  1  0  0  0  0
 74 75  2  0  0  0  0
 76141  1  0  0  0  0
M  END
>  <Compound ID>
583

>  <Uniprot>
P00533

>  <Target>
EGFR L858R/T790M

>  <E3 ligase>
VHL

>  <DC50 (nM)>
>2000

>  <Assay (DC50/Dmax)>
Degradation of EGFR L858R/T790M in H1975 cells after 16h treatment

>  <Article DOI>
10.1016/j.ejmech.2020.112199

>  <Molecular Weight>
1052.272

>  <Exact Mass>
1051.4739

>  <XLogP3>
5.2800002

>  <Heavy Atom Count>
76

>  <Ring Count>
8

>  <Hydrogen Bond Acceptor Count>
15

>  <Hydrogen Bond Donor Count>
5

>  <Rotatable Bond Count>
18

>  <Topological Polar Surface Area>
233.32001

>  <Molecular Formula>
C56H65N11O8S

>  <InChI>
InChI=1S/C56H65N11O8S/c1-8-46(69)60-38-12-11-13-40(27-38)67-49(72)26-34(2)42-31-58-55(63-52(42)67)61-43-21-20-39(28-45(43)75-7)64-22-24-65(25-23-64)48(71)15-10-9-14-47(70)62-51(56(4,5)6)54(74)66-32-41(68)29-44(66)53(73)57-30-36-16-18-37(19-17-36)50-35(3)59-33-76-50/h8,11-13,16-21,26-28,31,33,41,44,51,68H,1,9-10,14-15,22-25,29-30,32H2,2-7H3,(H,57,73)(H,60,69)(H,62,70)(H,58,61,63)/t41-,44+,51-/m1/s1

>  <InChI Key>
SUWGYDIQBJOKHS-MSYDQUDQSA-N

$$$$
584
  MOE2018           3D

155162  0  0  1  0  0  0  0  0999 V2000
    1.5290  -26.6580    2.1780 C   0  0  0  0  0  0  0  0  0  0  0  0
    1.3920  -25.3230    2.0310 C   0  0  0  0  0  0  0  0  0  0  0  0
    1.9930  -24.5640    0.9410 C   0  0  0  0  0  0  0  0  0  0  0  0
    2.6640  -25.0760    0.0570 O   0  0  0  0  0  0  0  0  0  0  0  0
    1.7870  -23.2040    0.9490 N   0  0  0  0  0  0  0  0  0  0  0  0
    2.2090  -22.2640   -0.0220 C   0  0  0  0  0  0  0  0  0  0  0  0
    2.2550  -22.5770   -1.3860 C   0  0  0  0  0  0  0  0  0  0  0  0
    2.6470  -21.6060   -2.3060 C   0  0  0  0  0  0  0  0  0  0  0  0
    2.9880  -20.3270   -1.8720 C   0  0  0  0  0  0  0  0  0  0  0  0
    2.9330  -20.0340   -0.5070 C   0  0  0  0  0  0  0  0  0  0  0  0
    3.2900  -18.7250   -0.0610 N   0  0  0  0  0  0  0  0  0  0  0  0
    2.2840  -17.8290    0.3100 C   0  0  0  0  0  0  0  0  0  0  0  0
    1.1140  -18.2090    0.2860 O   0  0  0  0  0  0  0  0  0  0  0  0
    2.6560  -16.4990    0.7120 C   0  0  0  0  0  0  0  0  0  0  0  0
    3.9540  -16.0970    0.7710 C   0  0  0  0  0  0  0  0  0  0  0  0
    4.2990  -14.6810    1.2000 C   0  0  0  0  0  0  0  0  0  0  0  0
    4.9870  -17.0400    0.4200 C   0  0  0  0  0  0  0  0  0  0  0  0
    6.3560  -16.7520    0.4650 C   0  0  0  0  0  0  0  0  0  0  0  0
    7.2480  -17.6550    0.1320 N   0  0  0  0  0  0  0  0  0  0  0  0
    6.8230  -18.8720   -0.2580 C   0  0  0  0  0  0  0  0  0  0  0  0
    7.7060  -19.8460   -0.6080 N   0  0  0  0  0  0  0  0  0  0  0  0
    9.1290  -19.8600   -0.6060 C   0  0  0  0  0  0  0  0  0  0  0  0
    9.8940  -18.7150   -0.8350 C   0  0  0  0  0  0  0  0  0  0  0  0
   11.2840  -18.7920   -0.8100 C   0  0  0  0  0  0  0  0  0  0  0  0
   11.9190  -20.0210   -0.5670 C   0  0  0  0  0  0  0  0  0  0  0  0
   13.3340  -20.1360   -0.5210 N   0  0  0  0  0  0  0  0  0  0  0  0
   13.8510  -20.5820    0.8000 C   0  0  0  0  0  0  0  0  0  0  0  0
   15.3100  -21.0680    0.5800 C   0  0  0  0  0  0  0  0  0  0  0  0
   16.1290  -19.9270    0.0470 N   0  3  0  0  0  0  0  0  0  0  0  0
   17.5110  -20.4040   -0.1260 C   0  0  0  0  0  0  0  0  0  0  0  0
   18.3850  -19.1430   -0.0540 C   0  0  0  0  0  0  0  0  0  0  0  0
   19.8290  -19.6040   -0.3030 C   0  0  0  0  0  0  0  0  0  0  0  0
   20.7920  -18.4120   -0.2160 C   0  0  0  0  0  0  0  0  0  0  0  0
   22.2230  -18.8540   -0.5480 C   0  0  0  0  0  0  0  0  0  0  0  0
   23.1960  -17.6750   -0.4220 C   0  0  0  0  0  0  0  0  0  0  0  0
   24.6120  -18.1040   -0.8300 C   0  0  0  0  0  0  0  0  0  0  0  0
   25.6020  -16.9460   -0.6430 C   0  0  0  0  0  0  0  0  0  0  0  0
   27.0120  -17.3540   -1.1040 C   0  0  0  0  0  0  0  0  0  0  0  0
   28.0420  -16.2510   -0.8970 C   0  0  0  0  0  0  0  0  0  0  0  0
   28.8630  -16.3310    0.0060 O   0  0  0  0  0  0  0  0  0  0  0  0
   27.9760  -15.1950   -1.7010 N   0  0  0  0  0  0  0  0  0  0  0  0
   28.9860  -14.1170   -1.7210 C   0  0  2  0  0  0  0  0  0  0  0  0
   29.1670  -13.3030   -0.3950 C   0  0  0  0  0  0  0  0  0  0  0  0
   30.2500  -12.7620   -0.1870 O   0  0  0  0  0  0  0  0  0  0  0  0
   28.2230  -13.2400    0.5720 N   0  0  0  0  0  0  0  0  0  0  0  0
   26.7980  -13.5140    0.4710 C   0  0  0  0  0  0  0  0  0  0  0  0
   26.1450  -12.5350    1.4440 C   0  0  2  0  0  0  0  0  0  0  0  0
   26.0090  -11.2610    0.8480 O   0  0  0  0  0  0  0  0  0  0  0  0
   27.1670  -12.4740    2.5760 C   0  0  0  0  0  0  0  0  0  0  0  0
   28.5320  -12.6860    1.9020 C   0  0  1  0  0  0  0  0  0  0  0  0
   29.4710  -13.5650    2.7750 C   0  0  0  0  0  0  0  0  0  0  0  0
   29.8930  -13.1330    3.8450 O   0  0  0  0  0  0  0  0  0  0  0  0
   29.7650  -14.8010    2.3590 N   0  0  0  0  0  0  0  0  0  0  0  0
   30.8340  -15.6030    2.9210 C   0  0  0  0  0  0  0  0  0  0  0  0
   31.9400  -15.4770    1.8940 C   0  0  0  0  0  0  0  0  0  0  0  0
   32.0490  -16.3940    0.8500 C   0  0  0  0  0  0  0  0  0  0  0  0
   33.0520  -16.2600   -0.1030 C   0  0  0  0  0  0  0  0  0  0  0  0
   33.9690  -15.2050   -0.0340 C   0  0  0  0  0  0  0  0  0  0  0  0
   35.0230  -15.0590   -1.0310 C   0  0  0  0  0  0  0  0  0  0  0  0
   35.9130  -15.9910   -1.5010 C   0  0  0  0  0  0  0  0  0  0  0  0
   35.9940  -17.4260   -1.0370 C   0  0  0  0  0  0  0  0  0  0  0  0
   36.7710  -15.5490   -2.4570 N   0  0  0  0  0  0  0  0  0  0  0  0
   36.5590  -14.2910   -2.7180 C   0  0  0  0  0  0  0  0  0  0  0  0
   35.2960  -13.5570   -1.8130 S   0  0  0  0  0  0  0  0  0  0  0  0
   33.8440  -14.2810    1.0090 C   0  0  0  0  0  0  0  0  0  0  0  0
   32.8410  -14.4150    1.9620 C   0  0  0  0  0  0  0  0  0  0  0  0
   28.7540  -13.2170   -2.9830 C   0  0  0  0  0  0  0  0  0  0  0  0
   27.4300  -12.4290   -2.9260 C   0  0  0  0  0  0  0  0  0  0  0  0
   29.8940  -12.1950   -3.1690 C   0  0  0  0  0  0  0  0  0  0  0  0
   28.7410  -14.0660   -4.2760 C   0  0  0  0  0  0  0  0  0  0  0  0
   15.5750  -19.5650   -1.3070 C   0  0  0  0  0  0  0  0  0  0  0  0
   14.1280  -19.0380   -1.1280 C   0  0  0  0  0  0  0  0  0  0  0  0
   11.1540  -21.1760   -0.3730 C   0  0  0  0  0  0  0  0  0  0  0  0
    9.7640  -21.0920   -0.3960 C   0  0  0  0  0  0  0  0  0  0  0  0
    8.9640  -22.2200   -0.2210 O   0  0  0  0  0  0  0  0  0  0  0  0
    9.4410  -23.5780   -0.0970 C   0  0  0  0  0  0  0  0  0  0  0  0
    5.5600  -19.2420   -0.3270 N   0  0  0  0  0  0  0  0  0  0  0  0
    4.6410  -18.3390    0.0070 C   0  0  0  0  0  0  0  0  0  0  0  0
    2.5440  -20.9890    0.4280 C   0  0  0  0  0  0  0  0  0  0  0  0
    2.1100  -27.2230    1.4640 H   0  0  0  0  0  0  0  0  0  0  0  0
    1.0570  -27.1610    3.0090 H   0  0  0  0  0  0  0  0  0  0  0  0
    0.8040  -24.7870    2.7620 H   0  0  0  0  0  0  0  0  0  0  0  0
    1.2760  -22.8340    1.7380 H   0  0  0  0  0  0  0  0  0  0  0  0
    1.9880  -23.5670   -1.7240 H   0  0  0  0  0  0  0  0  0  0  0  0
    2.6860  -21.8460   -3.3580 H   0  0  0  0  0  0  0  0  0  0  0  0
    3.2910  -19.5710   -2.5820 H   0  0  0  0  0  0  0  0  0  0  0  0
    1.8790  -15.7970    0.9760 H   0  0  0  0  0  0  0  0  0  0  0  0
    5.3810  -14.5500    1.1850 H   0  0  0  0  0  0  0  0  0  0  0  0
    3.9260  -14.5060    2.2090 H   0  0  0  0  0  0  0  0  0  0  0  0
    3.8370  -13.9710    0.5140 H   0  0  0  0  0  0  0  0  0  0  0  0
    6.6830  -15.7720    0.7790 H   0  0  0  0  0  0  0  0  0  0  0  0
    7.2790  -20.7050   -0.9230 H   0  0  0  0  0  0  0  0  0  0  0  0
    9.4080  -17.7710   -1.0310 H   0  0  0  0  0  0  0  0  0  0  0  0
   11.8760  -17.9040   -0.9780 H   0  0  0  0  0  0  0  0  0  0  0  0
   13.8360  -19.7520    1.5070 H   0  0  0  0  0  0  0  0  0  0  0  0
   13.2390  -21.3980    1.1850 H   0  0  0  0  0  0  0  0  0  0  0  0
   15.3180  -21.8900   -0.1360 H   0  0  0  0  0  0  0  0  0  0  0  0
   15.7290  -21.4080    1.5270 H   0  0  0  0  0  0  0  0  0  0  0  0
   16.1050  -19.1320    0.6700 H   0  0  0  0  0  0  0  0  0  0  0  0
   17.7780  -21.1000    0.6700 H   0  0  0  0  0  0  0  0  0  0  0  0
   17.6280  -20.8950   -1.0920 H   0  0  0  0  0  0  0  0  0  0  0  0
   18.0800  -18.4280   -0.8180 H   0  0  0  0  0  0  0  0  0  0  0  0
   18.3010  -18.6810    0.9300 H   0  0  0  0  0  0  0  0  0  0  0  0
   20.1050  -20.3440    0.4480 H   0  0  0  0  0  0  0  0  0  0  0  0
   19.8980  -20.0500   -1.2950 H   0  0  0  0  0  0  0  0  0  0  0  0
   20.4790  -17.6450   -0.9250 H   0  0  0  0  0  0  0  0  0  0  0  0
   20.7680  -18.0040    0.7940 H   0  0  0  0  0  0  0  0  0  0  0  0
   22.5240  -19.6420    0.1430 H   0  0  0  0  0  0  0  0  0  0  0  0
   22.2520  -19.2350   -1.5690 H   0  0  0  0  0  0  0  0  0  0  0  0
   23.2090  -17.3290    0.6120 H   0  0  0  0  0  0  0  0  0  0  0  0
   22.8650  -16.8650   -1.0720 H   0  0  0  0  0  0  0  0  0  0  0  0
   24.6070  -18.4060   -1.8770 H   0  0  0  0  0  0  0  0  0  0  0  0
   24.9240  -18.9450   -0.2110 H   0  0  0  0  0  0  0  0  0  0  0  0
   25.6360  -16.6710    0.4110 H   0  0  0  0  0  0  0  0  0  0  0  0
   25.2670  -16.0910   -1.2300 H   0  0  0  0  0  0  0  0  0  0  0  0
   26.9740  -17.6010   -2.1650 H   0  0  0  0  0  0  0  0  0  0  0  0
   27.3230  -18.2320   -0.5380 H   0  0  0  0  0  0  0  0  0  0  0  0
   27.1920  -15.1260   -2.3340 H   0  0  0  0  0  0  0  0  0  0  0  0
   29.9550  -14.6100   -1.7950 H   0  0  0  0  0  0  0  0  0  0  0  0
   26.4440  -13.3400   -0.5450 H   0  0  0  0  0  0  0  0  0  0  0  0
   26.5830  -14.5430    0.7590 H   0  0  0  0  0  0  0  0  0  0  0  0
   25.1460  -12.8350    1.7610 H   0  0  0  0  0  0  0  0  0  0  0  0
   26.8810  -10.9800    0.5620 H   0  0  0  0  0  0  0  0  0  0  0  0
   27.1320  -11.5030    3.0700 H   0  0  0  0  0  0  0  0  0  0  0  0
   26.9750  -13.2600    3.3060 H   0  0  0  0  0  0  0  0  0  0  0  0
   29.1000  -11.7620    1.7900 H   0  0  0  0  0  0  0  0  0  0  0  0
   29.2120  -15.1980    1.6130 H   0  0  0  0  0  0  0  0  0  0  0  0
   31.1510  -15.2100    3.8870 H   0  0  0  0  0  0  0  0  0  0  0  0
   30.5240  -16.6420    3.0360 H   0  0  0  0  0  0  0  0  0  0  0  0
   31.3500  -17.2140    0.7810 H   0  0  0  0  0  0  0  0  0  0  0  0
   33.1250  -16.9780   -0.9060 H   0  0  0  0  0  0  0  0  0  0  0  0
   35.2370  -17.6040   -0.2730 H   0  0  0  0  0  0  0  0  0  0  0  0
   36.9830  -17.6180   -0.6200 H   0  0  0  0  0  0  0  0  0  0  0  0
   35.8210  -18.0920   -1.8830 H   0  0  0  0  0  0  0  0  0  0  0  0
   37.1360  -13.7470   -3.4510 H   0  0  0  0  0  0  0  0  0  0  0  0
   34.5350  -13.4540    1.0750 H   0  0  0  0  0  0  0  0  0  0  0  0
   32.7590  -13.6920    2.7600 H   0  0  0  0  0  0  0  0  0  0  0  0
   27.3270  -11.8250   -3.8280 H   0  0  0  0  0  0  0  0  0  0  0  0
   27.4320  -11.7790   -2.0510 H   0  0  0  0  0  0  0  0  0  0  0  0
   26.5950  -13.1260   -2.8590 H   0  0  0  0  0  0  0  0  0  0  0  0
   29.6980  -11.5890   -4.0540 H   0  0  0  0  0  0  0  0  0  0  0  0
   30.8390  -12.7240   -3.2930 H   0  0  0  0  0  0  0  0  0  0  0  0
   29.9500  -11.5500   -2.2920 H   0  0  0  0  0  0  0  0  0  0  0  0
   28.5780  -13.4160   -5.1360 H   0  0  0  0  0  0  0  0  0  0  0  0
   27.9390  -14.8020   -4.2200 H   0  0  0  0  0  0  0  0  0  0  0  0
   29.6970  -14.5790   -4.3840 H   0  0  0  0  0  0  0  0  0  0  0  0
   16.1940  -18.7910   -1.7610 H   0  0  0  0  0  0  0  0  0  0  0  0
   15.5670  -20.4470   -1.9480 H   0  0  0  0  0  0  0  0  0  0  0  0
   13.7080  -18.7640   -2.0960 H   0  0  0  0  0  0  0  0  0  0  0  0
   14.1260  -18.1680   -0.4710 H   0  0  0  0  0  0  0  0  0  0  0  0
   11.6380  -22.1270   -0.2060 H   0  0  0  0  0  0  0  0  0  0  0  0
    8.5930  -24.2510    0.0300 H   0  0  0  0  0  0  0  0  0  0  0  0
   10.0980  -23.6550    0.7690 H   0  0  0  0  0  0  0  0  0  0  0  0
    9.9920  -23.8530   -0.9960 H   0  0  0  0  0  0  0  0  0  0  0  0
    2.5030  -20.7470    1.4800 H   0  0  0  0  0  0  0  0  0  0  0  0
  1  2  2  0  0  0  0
  1 80  1  0  0  0  0
  1 81  1  0  0  0  0
  2  3  1  0  0  0  0
  2 82  1  0  0  0  0
  3  4  2  0  0  0  0
  3  5  1  0  0  0  0
  5  6  1  0  0  0  0
  5 83  1  0  0  0  0
  6  7  1  0  0  0  0
  6 79  2  0  0  0  0
  7  8  2  0  0  0  0
  7 84  1  0  0  0  0
  8  9  1  0  0  0  0
  8 85  1  0  0  0  0
  9 10  2  0  0  0  0
  9 86  1  0  0  0  0
 10 11  1  0  0  0  0
 10 79  1  0  0  0  0
 11 12  1  0  0  0  0
 11 78  1  0  0  0  0
 12 13  2  0  0  0  0
 12 14  1  0  0  0  0
 14 15  2  0  0  0  0
 14 87  1  0  0  0  0
 15 16  1  0  0  0  0
 15 17  1  0  0  0  0
 16 88  1  0  0  0  0
 16 89  1  0  0  0  0
 16 90  1  0  0  0  0
 17 18  2  0  0  0  0
 17 78  1  0  0  0  0
 18 19  1  0  0  0  0
 18 91  1  0  0  0  0
 19 20  2  0  0  0  0
 20 21  1  0  0  0  0
 20 77  1  0  0  0  0
 21 22  1  0  0  0  0
 21 92  1  0  0  0  0
 22 23  1  0  0  0  0
 22 74  2  0  0  0  0
 23 24  2  0  0  0  0
 23 93  1  0  0  0  0
 24 25  1  0  0  0  0
 24 94  1  0  0  0  0
 25 26  1  0  0  0  0
 25 73  2  0  0  0  0
 26 27  1  0  0  0  0
 26 72  1  0  0  0  0
 27 28  1  0  0  0  0
 27 95  1  0  0  0  0
 27 96  1  0  0  0  0
 28 29  1  0  0  0  0
 28 97  1  0  0  0  0
 28 98  1  0  0  0  0
 29 30  1  0  0  0  0
 29 71  1  0  0  0  0
 29 99  1  0  0  0  0
 30 31  1  0  0  0  0
 30100  1  0  0  0  0
 30101  1  0  0  0  0
 31 32  1  0  0  0  0
 31102  1  0  0  0  0
 31103  1  0  0  0  0
 32 33  1  0  0  0  0
 32104  1  0  0  0  0
 32105  1  0  0  0  0
 33 34  1  0  0  0  0
 33106  1  0  0  0  0
 33107  1  0  0  0  0
 34 35  1  0  0  0  0
 34108  1  0  0  0  0
 34109  1  0  0  0  0
 35 36  1  0  0  0  0
 35110  1  0  0  0  0
 35111  1  0  0  0  0
 36 37  1  0  0  0  0
 36112  1  0  0  0  0
 36113  1  0  0  0  0
 37 38  1  0  0  0  0
 37114  1  0  0  0  0
 37115  1  0  0  0  0
 38 39  1  0  0  0  0
 38116  1  0  0  0  0
 38117  1  0  0  0  0
 39 40  2  0  0  0  0
 39 41  1  0  0  0  0
 41 42  1  0  0  0  0
 41118  1  0  0  0  0
 42 43  1  0  0  0  0
 42 67  1  0  0  0  0
 42119  1  0  0  0  0
 43 44  2  0  0  0  0
 43 45  1  0  0  0  0
 45 46  1  0  0  0  0
 45 50  1  0  0  0  0
 46 47  1  0  0  0  0
 46120  1  0  0  0  0
 46121  1  0  0  0  0
 47 48  1  0  0  0  0
 47 49  1  0  0  0  0
 47122  1  0  0  0  0
 48123  1  0  0  0  0
 49 50  1  0  0  0  0
 49124  1  0  0  0  0
 49125  1  0  0  0  0
 50 51  1  0  0  0  0
 50126  1  0  0  0  0
 51 52  2  0  0  0  0
 51 53  1  0  0  0  0
 53 54  1  0  0  0  0
 53127  1  0  0  0  0
 54 55  1  0  0  0  0
 54128  1  0  0  0  0
 54129  1  0  0  0  0
 55 56  1  0  0  0  0
 55 66  2  0  0  0  0
 56 57  2  0  0  0  0
 56130  1  0  0  0  0
 57 58  1  0  0  0  0
 57131  1  0  0  0  0
 58 59  1  0  0  0  0
 58 65  2  0  0  0  0
 59 60  2  0  0  0  0
 59 64  1  0  0  0  0
 60 61  1  0  0  0  0
 60 62  1  0  0  0  0
 61132  1  0  0  0  0
 61133  1  0  0  0  0
 61134  1  0  0  0  0
 62 63  2  0  0  0  0
 63 64  1  0  0  0  0
 63135  1  0  0  0  0
 65 66  1  0  0  0  0
 65136  1  0  0  0  0
 66137  1  0  0  0  0
 67 68  1  0  0  0  0
 67 69  1  0  0  0  0
 67 70  1  0  0  0  0
 68138  1  0  0  0  0
 68139  1  0  0  0  0
 68140  1  0  0  0  0
 69141  1  0  0  0  0
 69142  1  0  0  0  0
 69143  1  0  0  0  0
 70144  1  0  0  0  0
 70145  1  0  0  0  0
 70146  1  0  0  0  0
 71 72  1  0  0  0  0
 71147  1  0  0  0  0
 71148  1  0  0  0  0
 72149  1  0  0  0  0
 72150  1  0  0  0  0
 73 74  1  0  0  0  0
 73151  1  0  0  0  0
 74 75  1  0  0  0  0
 75 76  1  0  0  0  0
 76152  1  0  0  0  0
 76153  1  0  0  0  0
 76154  1  0  0  0  0
 77 78  2  0  0  0  0
 79155  1  0  0  0  0
M  CHG  1  29   1
M  END
>  <Compound ID>
584

>  <Uniprot>
P00533

>  <Target>
EGFR L858R/T790M

>  <E3 ligase>
VHL

>  <DC50 (nM)>
132

>  <Assay (DC50/Dmax)>
Degradation of EGFR L858R/T790M in H1975 cells after 16h treatment

>  <Article DOI>
10.1016/j.ejmech.2020.112199

>  <Molecular Weight>
1094.397

>  <Exact Mass>
1093.5571

>  <XLogP3>
8.4099998

>  <Heavy Atom Count>
79

>  <Ring Count>
8

>  <Hydrogen Bond Acceptor Count>
15

>  <Hydrogen Bond Donor Count>
5

>  <Rotatable Bond Count>
23

>  <Topological Polar Surface Area>
216.25

>  <Molecular Formula>
C60H75N11O7S

>  <InChI>
InChI=1S/C60H75N11O7S/c1-8-51(73)64-43-17-16-18-45(32-43)71-53(75)31-39(2)47-36-62-59(67-56(47)71)65-48-25-24-44(33-50(48)78-7)69-29-27-68(28-30-69)26-15-13-11-9-10-12-14-19-52(74)66-55(60(4,5)6)58(77)70-37-46(72)34-49(70)57(76)61-35-41-20-22-42(23-21-41)54-40(3)63-38-79-54/h8,16-18,20-25,31-33,36,38,46,49,55,72H,1,9-15,19,26-30,34-35,37H2,2-7H3,(H,61,76)(H,64,73)(H,66,74)(H,62,65,67)/t46-,49+,55-/m1/s1

>  <InChI Key>
WWVCWKWNVMYOAL-CKCQHBCRSA-N

$$$$
585
  MOE2018           3D

149156  0  0  1  0  0  0  0  0999 V2000
   -4.9310  -17.4900   -4.1050 C   0  0  0  0  0  0  0  0  0  0  0  0
   -4.8560  -18.6820   -3.4750 C   0  0  0  0  0  0  0  0  0  0  0  0
   -4.2620  -18.8630   -2.1570 C   0  0  0  0  0  0  0  0  0  0  0  0
   -3.7950  -17.9460   -1.4990 O   0  0  0  0  0  0  0  0  0  0  0  0
   -4.2270  -20.1480   -1.6680 N   0  0  0  0  0  0  0  0  0  0  0  0
   -3.7710  -20.5740   -0.3980 C   0  0  0  0  0  0  0  0  0  0  0  0
   -3.9360  -19.7910    0.7520 C   0  0  0  0  0  0  0  0  0  0  0  0
   -3.5020  -20.2730    1.9850 C   0  0  0  0  0  0  0  0  0  0  0  0
   -2.9100  -21.5310    2.0770 C   0  0  0  0  0  0  0  0  0  0  0  0
   -2.7550  -22.2970    0.9190 C   0  0  0  0  0  0  0  0  0  0  0  0
   -2.1430  -23.5850    1.0120 N   0  0  0  0  0  0  0  0  0  0  0  0
   -2.9290  -24.7320    0.8710 C   0  0  0  0  0  0  0  0  0  0  0  0
   -4.1260  -24.6020    0.6130 O   0  0  0  0  0  0  0  0  0  0  0  0
   -2.3090  -26.0200    1.0270 C   0  0  0  0  0  0  0  0  0  0  0  0
   -0.9800  -26.1570    1.2790 C   0  0  0  0  0  0  0  0  0  0  0  0
   -0.3670  -27.5390    1.4350 C   0  0  0  0  0  0  0  0  0  0  0  0
   -0.1700  -24.9690    1.3900 C   0  0  0  0  0  0  0  0  0  0  0  0
    1.2090  -24.9840    1.6320 C   0  0  0  0  0  0  0  0  0  0  0  0
    1.8940  -23.8680    1.7130 N   0  0  0  0  0  0  0  0  0  0  0  0
    1.2430  -22.6980    1.5560 C   0  0  0  0  0  0  0  0  0  0  0  0
    1.9130  -21.5160    1.6100 N   0  0  0  0  0  0  0  0  0  0  0  0
    3.3140  -21.2970    1.6840 C   0  0  0  0  0  0  0  0  0  0  0  0
    4.1270  -22.0350    2.5440 C   0  0  0  0  0  0  0  0  0  0  0  0
    5.4970  -21.7960    2.5730 C   0  0  0  0  0  0  0  0  0  0  0  0
    6.0660  -20.8220    1.7420 C   0  0  0  0  0  0  0  0  0  0  0  0
    7.4780  -20.6490    1.7820 N   0  0  0  0  0  0  0  0  0  0  0  0
    8.2360  -21.8760    1.4110 C   0  0  0  0  0  0  0  0  0  0  0  0
    9.6950  -21.6850    1.9040 C   0  0  0  0  0  0  0  0  0  0  0  0
   10.2750  -20.4800    1.2240 N   0  3  0  0  0  0  0  0  0  0  0  0
   11.6800  -20.3550    1.6430 C   0  0  0  0  0  0  0  0  0  0  0  0
   12.3680  -19.5980    0.4970 C   0  0  0  0  0  0  0  0  0  0  0  0
   13.8720  -19.5910    0.8150 C   0  0  0  0  0  0  0  0  0  0  0  0
   14.6470  -18.9210   -0.3290 C   0  0  0  0  0  0  0  0  0  0  0  0
   16.1610  -18.9850   -0.0790 C   0  0  0  0  0  0  0  0  0  0  0  0
   16.9180  -18.3720   -1.2660 C   0  0  0  0  0  0  0  0  0  0  0  0
   18.4440  -18.4860   -1.0910 C   0  0  0  0  0  0  0  0  0  0  0  0
   19.2390  -17.9560   -2.2900 C   0  0  0  0  0  0  0  0  0  0  0  0
   18.6940  -17.3520   -3.2000 O   0  0  0  0  0  0  0  0  0  0  0  0
   20.5530  -18.1110   -2.3590 N   0  0  0  0  0  0  0  0  0  0  0  0
   21.4890  -18.6980   -1.3810 C   0  0  2  0  0  0  0  0  0  0  0  0
   22.6410  -17.7120   -1.0160 C   0  0  0  0  0  0  0  0  0  0  0  0
   23.2150  -17.8060    0.0690 O   0  0  0  0  0  0  0  0  0  0  0  0
   22.8640  -16.6440   -1.8040 N   0  0  0  0  0  0  0  0  0  0  0  0
   22.0110  -15.4800   -1.5400 C   0  0  0  0  0  0  0  0  0  0  0  0
   22.9360  -14.2840   -1.2550 C   0  0  2  0  0  0  0  0  0  0  0  0
   22.8920  -13.3330   -2.3020 O   0  0  0  0  0  0  0  0  0  0  0  0
   24.3350  -14.8930   -1.1910 C   0  0  0  0  0  0  0  0  0  0  0  0
   24.1980  -16.0960   -2.1200 C   0  0  1  0  0  0  0  0  0  0  0  0
   25.4600  -17.0070   -2.1350 C   0  0  0  0  0  0  0  0  0  0  0  0
   26.2600  -16.8930   -3.0600 O   0  0  0  0  0  0  0  0  0  0  0  0
   25.6620  -17.8970   -1.1630 N   0  0  0  0  0  0  0  0  0  0  0  0
   26.8950  -18.6580   -1.0120 C   0  0  0  0  0  0  0  0  0  0  0  0
   27.7200  -17.8330   -0.0450 C   0  0  0  0  0  0  0  0  0  0  0  0
   27.6880  -18.0950    1.3240 C   0  0  0  0  0  0  0  0  0  0  0  0
   28.4440  -17.3280    2.2040 C   0  0  0  0  0  0  0  0  0  0  0  0
   29.2500  -16.2840    1.7360 C   0  0  0  0  0  0  0  0  0  0  0  0
   30.0490  -15.4900    2.6610 C   0  0  0  0  0  0  0  0  0  0  0  0
   31.3770  -15.1540    2.5910 C   0  0  0  0  0  0  0  0  0  0  0  0
   32.3240  -15.5860    1.4960 C   0  0  0  0  0  0  0  0  0  0  0  0
   31.8350  -14.3740    3.6030 N   0  0  0  0  0  0  0  0  0  0  0  0
   30.8820  -14.1180    4.4540 C   0  0  0  0  0  0  0  0  0  0  0  0
   29.3570  -14.8130    4.0770 S   0  0  0  0  0  0  0  0  0  0  0  0
   29.2640  -16.0190    0.3620 C   0  0  0  0  0  0  0  0  0  0  0  0
   28.5090  -16.7860   -0.5180 C   0  0  0  0  0  0  0  0  0  0  0  0
   22.0280  -20.0660   -1.9220 C   0  0  0  0  0  0  0  0  0  0  0  0
   20.8790  -21.0640   -2.1830 C   0  0  0  0  0  0  0  0  0  0  0  0
   22.9580  -20.7550   -0.9010 C   0  0  0  0  0  0  0  0  0  0  0  0
   22.8180  -19.9100   -3.2380 C   0  0  0  0  0  0  0  0  0  0  0  0
    9.5080  -19.2800    1.7090 C   0  0  0  0  0  0  0  0  0  0  0  0
    8.0410  -19.3980    1.2130 C   0  0  0  0  0  0  0  0  0  0  0  0
    5.2450  -20.0500    0.9050 C   0  0  0  0  0  0  0  0  0  0  0  0
    3.8720  -20.2880    0.8870 C   0  0  0  0  0  0  0  0  0  0  0  0
    3.0140  -19.5410    0.0820 O   0  0  0  0  0  0  0  0  0  0  0  0
    3.4050  -18.4850   -0.8220 C   0  0  0  0  0  0  0  0  0  0  0  0
   -0.0490  -22.5790    1.3290 N   0  0  0  0  0  0  0  0  0  0  0  0
   -0.7600  -23.7010    1.2490 C   0  0  0  0  0  0  0  0  0  0  0  0
   -3.1810  -21.8340   -0.3230 C   0  0  0  0  0  0  0  0  0  0  0  0
   -4.5370  -16.6030   -3.6310 H   0  0  0  0  0  0  0  0  0  0  0  0
   -5.3850  -17.4240   -5.0830 H   0  0  0  0  0  0  0  0  0  0  0  0
   -5.2590  -19.5500   -3.9760 H   0  0  0  0  0  0  0  0  0  0  0  0
   -4.5660  -20.8710   -2.2870 H   0  0  0  0  0  0  0  0  0  0  0  0
   -4.3980  -18.8170    0.6830 H   0  0  0  0  0  0  0  0  0  0  0  0
   -3.6250  -19.6700    2.8720 H   0  0  0  0  0  0  0  0  0  0  0  0
   -2.5750  -21.9090    3.0320 H   0  0  0  0  0  0  0  0  0  0  0  0
   -2.9190  -26.9070    0.9410 H   0  0  0  0  0  0  0  0  0  0  0  0
    0.7010  -27.4430    1.6310 H   0  0  0  0  0  0  0  0  0  0  0  0
   -0.5180  -28.1090    0.5180 H   0  0  0  0  0  0  0  0  0  0  0  0
   -0.8440  -28.0560    2.2670 H   0  0  0  0  0  0  0  0  0  0  0  0
    1.7170  -25.9290    1.7540 H   0  0  0  0  0  0  0  0  0  0  0  0
    1.3390  -20.6850    1.5960 H   0  0  0  0  0  0  0  0  0  0  0  0
    3.6950  -22.7890    3.1850 H   0  0  0  0  0  0  0  0  0  0  0  0
    6.1270  -22.3650    3.2410 H   0  0  0  0  0  0  0  0  0  0  0  0
    7.7920  -22.7480    1.8910 H   0  0  0  0  0  0  0  0  0  0  0  0
    8.2220  -22.0100    0.3290 H   0  0  0  0  0  0  0  0  0  0  0  0
   10.2850  -22.5670    1.6550 H   0  0  0  0  0  0  0  0  0  0  0  0
    9.7010  -21.5360    2.9840 H   0  0  0  0  0  0  0  0  0  0  0  0
   10.2200  -20.5550    0.2180 H   0  0  0  0  0  0  0  0  0  0  0  0
   11.7540  -19.7920    2.5730 H   0  0  0  0  0  0  0  0  0  0  0  0
   12.1290  -21.3390    1.7770 H   0  0  0  0  0  0  0  0  0  0  0  0
   12.1860  -20.1050   -0.4510 H   0  0  0  0  0  0  0  0  0  0  0  0
   11.9910  -18.5770    0.4410 H   0  0  0  0  0  0  0  0  0  0  0  0
   14.0430  -19.0390    1.7390 H   0  0  0  0  0  0  0  0  0  0  0  0
   14.2200  -20.6170    0.9350 H   0  0  0  0  0  0  0  0  0  0  0  0
   14.4180  -19.4340   -1.2630 H   0  0  0  0  0  0  0  0  0  0  0  0
   14.3420  -17.8770   -0.4030 H   0  0  0  0  0  0  0  0  0  0  0  0
   16.4630  -20.0250    0.0430 H   0  0  0  0  0  0  0  0  0  0  0  0
   16.4010  -18.4290    0.8270 H   0  0  0  0  0  0  0  0  0  0  0  0
   16.6500  -17.3190   -1.3490 H   0  0  0  0  0  0  0  0  0  0  0  0
   16.6270  -18.8940   -2.1780 H   0  0  0  0  0  0  0  0  0  0  0  0
   18.6970  -19.5360   -0.9460 H   0  0  0  0  0  0  0  0  0  0  0  0
   18.7330  -17.9180   -0.2070 H   0  0  0  0  0  0  0  0  0  0  0  0
   20.9790  -17.7760   -3.2110 H   0  0  0  0  0  0  0  0  0  0  0  0
   20.9510  -18.8860   -0.4520 H   0  0  0  0  0  0  0  0  0  0  0  0
   21.3880  -15.2700   -2.4100 H   0  0  0  0  0  0  0  0  0  0  0  0
   21.3750  -15.6730   -0.6760 H   0  0  0  0  0  0  0  0  0  0  0  0
   22.6430  -13.7640   -0.3430 H   0  0  0  0  0  0  0  0  0  0  0  0
   23.1490  -13.7810   -3.1120 H   0  0  0  0  0  0  0  0  0  0  0  0
   25.0880  -14.1950   -1.5550 H   0  0  0  0  0  0  0  0  0  0  0  0
   24.5870  -15.2020   -0.1770 H   0  0  0  0  0  0  0  0  0  0  0  0
   24.2020  -15.8750   -3.1870 H   0  0  0  0  0  0  0  0  0  0  0  0
   24.9200  -18.0520   -0.4950 H   0  0  0  0  0  0  0  0  0  0  0  0
   26.6920  -19.6470   -0.6020 H   0  0  0  0  0  0  0  0  0  0  0  0
   27.4070  -18.7600   -1.9690 H   0  0  0  0  0  0  0  0  0  0  0  0
   27.0730  -18.8980    1.7030 H   0  0  0  0  0  0  0  0  0  0  0  0
   28.4090  -17.5410    3.2620 H   0  0  0  0  0  0  0  0  0  0  0  0
   31.7880  -16.2020    0.7740 H   0  0  0  0  0  0  0  0  0  0  0  0
   33.1420  -16.1620    1.9290 H   0  0  0  0  0  0  0  0  0  0  0  0
   32.7260  -14.7050    0.9950 H   0  0  0  0  0  0  0  0  0  0  0  0
   31.0400  -13.5120    5.3340 H   0  0  0  0  0  0  0  0  0  0  0  0
   29.8680  -15.2090   -0.0190 H   0  0  0  0  0  0  0  0  0  0  0  0
   28.5340  -16.5690   -1.5760 H   0  0  0  0  0  0  0  0  0  0  0  0
   21.2900  -22.0020   -2.5570 H   0  0  0  0  0  0  0  0  0  0  0  0
   20.1960  -20.6460   -2.9220 H   0  0  0  0  0  0  0  0  0  0  0  0
   20.3400  -21.2490   -1.2540 H   0  0  0  0  0  0  0  0  0  0  0  0
   23.3120  -21.7010   -1.3120 H   0  0  0  0  0  0  0  0  0  0  0  0
   22.4090  -20.9430    0.0220 H   0  0  0  0  0  0  0  0  0  0  0  0
   23.8100  -20.1080   -0.6920 H   0  0  0  0  0  0  0  0  0  0  0  0
   23.1690  -20.8870   -3.5690 H   0  0  0  0  0  0  0  0  0  0  0  0
   23.6730  -19.2540   -3.0730 H   0  0  0  0  0  0  0  0  0  0  0  0
   22.1710  -19.4790   -4.0010 H   0  0  0  0  0  0  0  0  0  0  0  0
    9.5260  -19.2480    2.7980 H   0  0  0  0  0  0  0  0  0  0  0  0
    9.9580  -18.3710    1.3110 H   0  0  0  0  0  0  0  0  0  0  0  0
    8.0180  -19.4410    0.1240 H   0  0  0  0  0  0  0  0  0  0  0  0
    7.4620  -18.5400    1.5550 H   0  0  0  0  0  0  0  0  0  0  0  0
    5.6730  -19.2790    0.2810 H   0  0  0  0  0  0  0  0  0  0  0  0
    2.5200  -18.0840   -1.3160 H   0  0  0  0  0  0  0  0  0  0  0  0
    4.0900  -18.8830   -1.5700 H   0  0  0  0  0  0  0  0  0  0  0  0
    3.8990  -17.6920   -0.2620 H   0  0  0  0  0  0  0  0  0  0  0  0
   -3.0570  -22.4390   -1.2090 H   0  0  0  0  0  0  0  0  0  0  0  0
  1  2  2  0  0  0  0
  1 78  1  0  0  0  0
  1 79  1  0  0  0  0
  2  3  1  0  0  0  0
  2 80  1  0  0  0  0
  3  4  2  0  0  0  0
  3  5  1  0  0  0  0
  5  6  1  0  0  0  0
  5 81  1  0  0  0  0
  6  7  1  0  0  0  0
  6 77  2  0  0  0  0
  7  8  2  0  0  0  0
  7 82  1  0  0  0  0
  8  9  1  0  0  0  0
  8 83  1  0  0  0  0
  9 10  2  0  0  0  0
  9 84  1  0  0  0  0
 10 11  1  0  0  0  0
 10 77  1  0  0  0  0
 11 12  1  0  0  0  0
 11 76  1  0  0  0  0
 12 13  2  0  0  0  0
 12 14  1  0  0  0  0
 14 15  2  0  0  0  0
 14 85  1  0  0  0  0
 15 16  1  0  0  0  0
 15 17  1  0  0  0  0
 16 86  1  0  0  0  0
 16 87  1  0  0  0  0
 16 88  1  0  0  0  0
 17 18  2  0  0  0  0
 17 76  1  0  0  0  0
 18 19  1  0  0  0  0
 18 89  1  0  0  0  0
 19 20  2  0  0  0  0
 20 21  1  0  0  0  0
 20 75  1  0  0  0  0
 21 22  1  0  0  0  0
 21 90  1  0  0  0  0
 22 23  1  0  0  0  0
 22 72  2  0  0  0  0
 23 24  2  0  0  0  0
 23 91  1  0  0  0  0
 24 25  1  0  0  0  0
 24 92  1  0  0  0  0
 25 26  1  0  0  0  0
 25 71  2  0  0  0  0
 26 27  1  0  0  0  0
 26 70  1  0  0  0  0
 27 28  1  0  0  0  0
 27 93  1  0  0  0  0
 27 94  1  0  0  0  0
 28 29  1  0  0  0  0
 28 95  1  0  0  0  0
 28 96  1  0  0  0  0
 29 30  1  0  0  0  0
 29 69  1  0  0  0  0
 29 97  1  0  0  0  0
 30 31  1  0  0  0  0
 30 98  1  0  0  0  0
 30 99  1  0  0  0  0
 31 32  1  0  0  0  0
 31100  1  0  0  0  0
 31101  1  0  0  0  0
 32 33  1  0  0  0  0
 32102  1  0  0  0  0
 32103  1  0  0  0  0
 33 34  1  0  0  0  0
 33104  1  0  0  0  0
 33105  1  0  0  0  0
 34 35  1  0  0  0  0
 34106  1  0  0  0  0
 34107  1  0  0  0  0
 35 36  1  0  0  0  0
 35108  1  0  0  0  0
 35109  1  0  0  0  0
 36 37  1  0  0  0  0
 36110  1  0  0  0  0
 36111  1  0  0  0  0
 37 38  2  0  0  0  0
 37 39  1  0  0  0  0
 39 40  1  0  0  0  0
 39112  1  0  0  0  0
 40 41  1  0  0  0  0
 40 65  1  0  0  0  0
 40113  1  0  0  0  0
 41 42  2  0  0  0  0
 41 43  1  0  0  0  0
 43 44  1  0  0  0  0
 43 48  1  0  0  0  0
 44 45  1  0  0  0  0
 44114  1  0  0  0  0
 44115  1  0  0  0  0
 45 46  1  0  0  0  0
 45 47  1  0  0  0  0
 45116  1  0  0  0  0
 46117  1  0  0  0  0
 47 48  1  0  0  0  0
 47118  1  0  0  0  0
 47119  1  0  0  0  0
 48 49  1  0  0  0  0
 48120  1  0  0  0  0
 49 50  2  0  0  0  0
 49 51  1  0  0  0  0
 51 52  1  0  0  0  0
 51121  1  0  0  0  0
 52 53  1  0  0  0  0
 52122  1  0  0  0  0
 52123  1  0  0  0  0
 53 54  1  0  0  0  0
 53 64  2  0  0  0  0
 54 55  2  0  0  0  0
 54124  1  0  0  0  0
 55 56  1  0  0  0  0
 55125  1  0  0  0  0
 56 57  1  0  0  0  0
 56 63  2  0  0  0  0
 57 58  2  0  0  0  0
 57 62  1  0  0  0  0
 58 59  1  0  0  0  0
 58 60  1  0  0  0  0
 59126  1  0  0  0  0
 59127  1  0  0  0  0
 59128  1  0  0  0  0
 60 61  2  0  0  0  0
 61 62  1  0  0  0  0
 61129  1  0  0  0  0
 63 64  1  0  0  0  0
 63130  1  0  0  0  0
 64131  1  0  0  0  0
 65 66  1  0  0  0  0
 65 67  1  0  0  0  0
 65 68  1  0  0  0  0
 66132  1  0  0  0  0
 66133  1  0  0  0  0
 66134  1  0  0  0  0
 67135  1  0  0  0  0
 67136  1  0  0  0  0
 67137  1  0  0  0  0
 68138  1  0  0  0  0
 68139  1  0  0  0  0
 68140  1  0  0  0  0
 69 70  1  0  0  0  0
 69141  1  0  0  0  0
 69142  1  0  0  0  0
 70143  1  0  0  0  0
 70144  1  0  0  0  0
 71 72  1  0  0  0  0
 71145  1  0  0  0  0
 72 73  1  0  0  0  0
 73 74  1  0  0  0  0
 74146  1  0  0  0  0
 74147  1  0  0  0  0
 74148  1  0  0  0  0
 75 76  2  0  0  0  0
 77149  1  0  0  0  0
M  CHG  1  29   1
M  END
>  <Compound ID>
585

>  <Uniprot>
P00533

>  <Target>
EGFR L858R/T790M

>  <E3 ligase>
VHL

>  <DC50 (nM)>
466

>  <Assay (DC50/Dmax)>
Degradation of EGFR L858R/T790M in H1975 cells after 16h treatment

>  <Article DOI>
10.1016/j.ejmech.2020.112199

>  <Molecular Weight>
1066.343

>  <Exact Mass>
1065.5259

>  <XLogP3>
7.3200002

>  <Heavy Atom Count>
77

>  <Ring Count>
8

>  <Hydrogen Bond Acceptor Count>
15

>  <Hydrogen Bond Donor Count>
5

>  <Rotatable Bond Count>
21

>  <Topological Polar Surface Area>
216.25

>  <Molecular Formula>
C58H71N11O7S

>  <InChI>
InChI=1S/C58H71N11O7S/c1-8-49(71)62-41-15-14-16-43(30-41)69-51(73)29-37(2)45-34-60-57(65-54(45)69)63-46-23-22-42(31-48(46)76-7)67-27-25-66(26-28-67)24-13-11-9-10-12-17-50(72)64-53(58(4,5)6)56(75)68-35-44(70)32-47(68)55(74)59-33-39-18-20-40(21-19-39)52-38(3)61-36-77-52/h8,14-16,18-23,29-31,34,36,44,47,53,70H,1,9-13,17,24-28,32-33,35H2,2-7H3,(H,59,74)(H,62,71)(H,64,72)(H,60,63,65)/t44-,47+,53-/m1/s1

>  <InChI Key>
UKICTJWYEJNYHR-JSYKSQSDSA-N

$$$$
586
  MOE2018           3D

143150  0  0  1  0  0  0  0  0999 V2000
   -1.6740    5.6050    1.0700 C   0  0  0  0  0  0  0  0  0  0  0  0
   -0.7300    6.5690    1.0090 C   0  0  0  0  0  0  0  0  0  0  0  0
    0.6950    6.3150    1.1970 C   0  0  0  0  0  0  0  0  0  0  0  0
    1.1570    5.2400    1.5390 O   0  0  0  0  0  0  0  0  0  0  0  0
    1.6260    7.2960    1.0240 N   0  0  0  0  0  0  0  0  0  0  0  0
    1.4210    8.5700    0.4650 C   0  0  0  0  0  0  0  0  0  0  0  0
    0.7940    8.7070   -0.7780 C   0  0  0  0  0  0  0  0  0  0  0  0
    0.6180    9.9780   -1.3230 C   0  0  0  0  0  0  0  0  0  0  0  0
    1.0720   11.1020   -0.6370 C   0  0  0  0  0  0  0  0  0  0  0  0
    1.7040   10.9390    0.5990 C   0  0  0  0  0  0  0  0  0  0  0  0
    2.1900   12.0870    1.2960 N   0  0  0  0  0  0  0  0  0  0  0  0
    1.2810   12.9700    1.8860 C   0  0  0  0  0  0  0  0  0  0  0  0
    0.0760   12.7470    1.7680 O   0  0  0  0  0  0  0  0  0  0  0  0
    1.7890   14.1030    2.6120 C   0  0  0  0  0  0  0  0  0  0  0  0
    3.1210   14.3410    2.7450 C   0  0  0  0  0  0  0  0  0  0  0  0
    3.6110   15.5500    3.5240 C   0  0  0  0  0  0  0  0  0  0  0  0
    4.0520   13.4240    2.1330 C   0  0  0  0  0  0  0  0  0  0  0  0
    5.4430   13.5560    2.2090 C   0  0  0  0  0  0  0  0  0  0  0  0
    6.2380   12.6940    1.6180 N   0  0  0  0  0  0  0  0  0  0  0  0
    5.6890   11.6740    0.9320 C   0  0  0  0  0  0  0  0  0  0  0  0
    6.4650   10.7500    0.3050 N   0  0  0  0  0  0  0  0  0  0  0  0
    7.8780   10.5960    0.2610 C   0  0  0  0  0  0  0  0  0  0  0  0
    8.7560   11.6820    0.3070 C   0  0  0  0  0  0  0  0  0  0  0  0
   10.1300   11.4660    0.2460 C   0  0  0  0  0  0  0  0  0  0  0  0
   10.6340   10.1620    0.1220 C   0  0  0  0  0  0  0  0  0  0  0  0
   12.0240    9.9020    0.0330 N   0  0  0  0  0  0  0  0  0  0  0  0
   12.4260    9.4080   -1.3080 C   0  0  0  0  0  0  0  0  0  0  0  0
   13.8480    8.8020   -1.1670 C   0  0  0  0  0  0  0  0  0  0  0  0
   14.7890    9.8730   -0.6890 N   0  3  0  0  0  0  0  0  0  0  0  0
   16.1380    9.2840   -0.6190 C   0  0  0  0  0  0  0  0  0  0  0  0
   17.1150   10.4730   -0.6250 C   0  0  0  0  0  0  0  0  0  0  0  0
   18.5250    9.8780   -0.7800 C   0  0  0  0  0  0  0  0  0  0  0  0
   19.5910   10.9850   -0.7670 C   0  0  0  0  0  0  0  0  0  0  0  0
   20.9860   10.3970   -1.0490 C   0  0  0  0  0  0  0  0  0  0  0  0
   22.1090   11.4250   -0.9590 C   0  0  0  0  0  0  0  0  0  0  0  0
   22.9850   11.2950   -0.1170 O   0  0  0  0  0  0  0  0  0  0  0  0
   22.1210   12.3930   -1.8750 N   0  0  0  0  0  0  0  0  0  0  0  0
   23.0830   13.5210   -1.9370 C   0  0  2  0  0  0  0  0  0  0  0  0
   24.5750   13.1680   -1.5790 C   0  0  0  0  0  0  0  0  0  0  0  0
   25.1780   13.7850   -0.7030 O   0  0  0  0  0  0  0  0  0  0  0  0
   25.2310   12.1790   -2.2310 N   0  0  0  0  0  0  0  0  0  0  0  0
   24.7340   11.3290   -3.3080 C   0  0  0  0  0  0  0  0  0  0  0  0
   25.0910    9.9070   -2.8830 C   0  0  2  0  0  0  0  0  0  0  0  0
   24.1580    9.3970   -1.9520 O   0  0  0  0  0  0  0  0  0  0  0  0
   26.4520   10.1020   -2.2230 C   0  0  0  0  0  0  0  0  0  0  0  0
   26.4400   11.5410   -1.6670 C   0  0  1  0  0  0  0  0  0  0  0  0
   27.7790   12.3150   -1.8790 C   0  0  0  0  0  0  0  0  0  0  0  0
   28.8020   11.7340   -2.2370 O   0  0  0  0  0  0  0  0  0  0  0  0
   27.7670   13.6400   -1.7220 N   0  0  0  0  0  0  0  0  0  0  0  0
   28.9580   14.4730   -1.7870 C   0  0  0  0  0  0  0  0  0  0  0  0
   29.4460   14.5560   -0.3550 C   0  0  0  0  0  0  0  0  0  0  0  0
   30.3550   13.6160    0.1290 C   0  0  0  0  0  0  0  0  0  0  0  0
   30.8100   13.6860    1.4400 C   0  0  0  0  0  0  0  0  0  0  0  0
   30.3640   14.6960    2.3000 C   0  0  0  0  0  0  0  0  0  0  0  0
   30.8490   14.7680    3.6720 C   0  0  0  0  0  0  0  0  0  0  0  0
   31.3710   15.8390    4.3520 C   0  0  0  0  0  0  0  0  0  0  0  0
   31.5770   17.2180    3.7710 C   0  0  0  0  0  0  0  0  0  0  0  0
   31.7160   15.5970    5.6430 N   0  0  0  0  0  0  0  0  0  0  0  0
   31.4790   14.3560    5.9580 C   0  0  0  0  0  0  0  0  0  0  0  0
   30.8170   13.3940    4.6970 S   0  0  0  0  0  0  0  0  0  0  0  0
   29.4370   15.6250    1.8120 C   0  0  0  0  0  0  0  0  0  0  0  0
   28.9830   15.5560    0.4990 C   0  0  0  0  0  0  0  0  0  0  0  0
   22.4610   14.7930   -1.2540 C   0  0  0  0  0  0  0  0  0  0  0  0
   22.2970   14.6590    0.2740 C   0  0  0  0  0  0  0  0  0  0  0  0
   23.2810   16.0680   -1.5560 C   0  0  0  0  0  0  0  0  0  0  0  0
   21.0520   15.0820   -1.8270 C   0  0  0  0  0  0  0  0  0  0  0  0
   14.3470   10.2740    0.6960 C   0  0  0  0  0  0  0  0  0  0  0  0
   12.9420   10.9260    0.5950 C   0  0  0  0  0  0  0  0  0  0  0  0
    9.7580    9.0740    0.0680 C   0  0  0  0  0  0  0  0  0  0  0  0
    8.3840    9.2940    0.1310 C   0  0  0  0  0  0  0  0  0  0  0  0
    7.4740    8.2380    0.0640 O   0  0  0  0  0  0  0  0  0  0  0  0
    7.8270    6.8370    0.0610 C   0  0  0  0  0  0  0  0  0  0  0  0
    4.3950   11.4570    0.8110 N   0  0  0  0  0  0  0  0  0  0  0  0
    3.5740   12.3190    1.4080 C   0  0  0  0  0  0  0  0  0  0  0  0
    1.8830    9.6800    1.1650 C   0  0  0  0  0  0  0  0  0  0  0  0
   -1.3890    4.5820    1.2670 H   0  0  0  0  0  0  0  0  0  0  0  0
   -2.7140    5.8570    0.9220 H   0  0  0  0  0  0  0  0  0  0  0  0
   -1.0470    7.5820    0.8100 H   0  0  0  0  0  0  0  0  0  0  0  0
    2.5650    7.0850    1.3310 H   0  0  0  0  0  0  0  0  0  0  0  0
    0.4490    7.8340   -1.3120 H   0  0  0  0  0  0  0  0  0  0  0  0
    0.1290   10.0910   -2.2790 H   0  0  0  0  0  0  0  0  0  0  0  0
    0.9370   12.0880   -1.0550 H   0  0  0  0  0  0  0  0  0  0  0  0
    1.0890   14.7880    3.0670 H   0  0  0  0  0  0  0  0  0  0  0  0
    4.7010   15.5690    3.5180 H   0  0  0  0  0  0  0  0  0  0  0  0
    3.2540   15.4890    4.5520 H   0  0  0  0  0  0  0  0  0  0  0  0
    3.2300   16.4600    3.0610 H   0  0  0  0  0  0  0  0  0  0  0  0
    5.8690   14.3800    2.7620 H   0  0  0  0  0  0  0  0  0  0  0  0
    5.9510   10.0560   -0.2180 H   0  0  0  0  0  0  0  0  0  0  0  0
    8.3690   12.6870    0.3900 H   0  0  0  0  0  0  0  0  0  0  0  0
   10.8100   12.3040    0.2940 H   0  0  0  0  0  0  0  0  0  0  0  0
   11.7270    8.6450   -1.6500 H   0  0  0  0  0  0  0  0  0  0  0  0
   12.4400   10.2330   -2.0210 H   0  0  0  0  0  0  0  0  0  0  0  0
   14.1830    8.4260   -2.1340 H   0  0  0  0  0  0  0  0  0  0  0  0
   13.8280    7.9850   -0.4460 H   0  0  0  0  0  0  0  0  0  0  0  0
   14.7920   10.6750   -1.3030 H   0  0  0  0  0  0  0  0  0  0  0  0
   16.2520    8.7040    0.2970 H   0  0  0  0  0  0  0  0  0  0  0  0
   16.3170    8.6410   -1.4810 H   0  0  0  0  0  0  0  0  0  0  0  0
   16.8930   11.1390   -1.4590 H   0  0  0  0  0  0  0  0  0  0  0  0
   17.0410   11.0260    0.3110 H   0  0  0  0  0  0  0  0  0  0  0  0
   18.7150    9.1900    0.0440 H   0  0  0  0  0  0  0  0  0  0  0  0
   18.5830    9.3380   -1.7250 H   0  0  0  0  0  0  0  0  0  0  0  0
   19.5960   11.4660    0.2110 H   0  0  0  0  0  0  0  0  0  0  0  0
   19.3510   11.7220   -1.5330 H   0  0  0  0  0  0  0  0  0  0  0  0
   20.9850    9.9740   -2.0530 H   0  0  0  0  0  0  0  0  0  0  0  0
   21.1810    9.6080   -0.3220 H   0  0  0  0  0  0  0  0  0  0  0  0
   21.4110   12.3550   -2.5920 H   0  0  0  0  0  0  0  0  0  0  0  0
   23.2270   13.7820   -2.9850 H   0  0  0  0  0  0  0  0  0  0  0  0
   23.6550   11.4380   -3.4150 H   0  0  0  0  0  0  0  0  0  0  0  0
   25.2200   11.5810   -4.2510 H   0  0  0  0  0  0  0  0  0  0  0  0
   25.0930    9.1970   -3.7100 H   0  0  0  0  0  0  0  0  0  0  0  0
   24.1310   10.0020   -1.2070 H   0  0  0  0  0  0  0  0  0  0  0  0
   26.5900    9.3830   -1.4150 H   0  0  0  0  0  0  0  0  0  0  0  0
   27.2510    9.9840   -2.9550 H   0  0  0  0  0  0  0  0  0  0  0  0
   26.3810   11.5480   -0.5790 H   0  0  0  0  0  0  0  0  0  0  0  0
   26.8800   14.0910   -1.5480 H   0  0  0  0  0  0  0  0  0  0  0  0
   29.7140   14.0150   -2.4250 H   0  0  0  0  0  0  0  0  0  0  0  0
   28.7140   15.4650   -2.1680 H   0  0  0  0  0  0  0  0  0  0  0  0
   30.7080   12.8280   -0.5200 H   0  0  0  0  0  0  0  0  0  0  0  0
   31.5160   12.9520    1.8000 H   0  0  0  0  0  0  0  0  0  0  0  0
   31.2470   17.2280    2.7320 H   0  0  0  0  0  0  0  0  0  0  0  0
   32.6340   17.4780    3.8190 H   0  0  0  0  0  0  0  0  0  0  0  0
   30.9980   17.9430    4.3430 H   0  0  0  0  0  0  0  0  0  0  0  0
   31.6840   13.9590    6.9410 H   0  0  0  0  0  0  0  0  0  0  0  0
   29.0700   16.4050    2.4630 H   0  0  0  0  0  0  0  0  0  0  0  0
   28.2680   16.2810    0.1390 H   0  0  0  0  0  0  0  0  0  0  0  0
   21.8620   15.5750    0.6740 H   0  0  0  0  0  0  0  0  0  0  0  0
   23.2720   14.4900    0.7310 H   0  0  0  0  0  0  0  0  0  0  0  0
   21.6410   13.8180    0.4970 H   0  0  0  0  0  0  0  0  0  0  0  0
   22.8170   16.9230   -1.0650 H   0  0  0  0  0  0  0  0  0  0  0  0
   23.3070   16.2370   -2.6330 H   0  0  0  0  0  0  0  0  0  0  0  0
   24.2980   15.9430   -1.1830 H   0  0  0  0  0  0  0  0  0  0  0  0
   20.6370   15.9660   -1.3430 H   0  0  0  0  0  0  0  0  0  0  0  0
   20.4020   14.2270   -1.6410 H   0  0  0  0  0  0  0  0  0  0  0  0
   21.1250   15.2570   -2.9000 H   0  0  0  0  0  0  0  0  0  0  0  0
   14.2980    9.3930    1.3360 H   0  0  0  0  0  0  0  0  0  0  0  0
   15.0550   10.9890    1.1150 H   0  0  0  0  0  0  0  0  0  0  0  0
   12.9800   11.7950   -0.0620 H   0  0  0  0  0  0  0  0  0  0  0  0
   12.6000   11.2320    1.5840 H   0  0  0  0  0  0  0  0  0  0  0  0
   10.1440    8.0690   -0.0220 H   0  0  0  0  0  0  0  0  0  0  0  0
    6.9210    6.2340    0.0010 H   0  0  0  0  0  0  0  0  0  0  0  0
    8.3640    6.5960    0.9780 H   0  0  0  0  0  0  0  0  0  0  0  0
    8.4620    6.6240   -0.7990 H   0  0  0  0  0  0  0  0  0  0  0  0
    2.3680    9.5680    2.1230 H   0  0  0  0  0  0  0  0  0  0  0  0
  1  2  2  0  0  0  0
  1 76  1  0  0  0  0
  1 77  1  0  0  0  0
  2  3  1  0  0  0  0
  2 78  1  0  0  0  0
  3  4  2  0  0  0  0
  3  5  1  0  0  0  0
  5  6  1  0  0  0  0
  5 79  1  0  0  0  0
  6  7  1  0  0  0  0
  6 75  2  0  0  0  0
  7  8  2  0  0  0  0
  7 80  1  0  0  0  0
  8  9  1  0  0  0  0
  8 81  1  0  0  0  0
  9 10  2  0  0  0  0
  9 82  1  0  0  0  0
 10 11  1  0  0  0  0
 10 75  1  0  0  0  0
 11 12  1  0  0  0  0
 11 74  1  0  0  0  0
 12 13  2  0  0  0  0
 12 14  1  0  0  0  0
 14 15  2  0  0  0  0
 14 83  1  0  0  0  0
 15 16  1  0  0  0  0
 15 17  1  0  0  0  0
 16 84  1  0  0  0  0
 16 85  1  0  0  0  0
 16 86  1  0  0  0  0
 17 18  2  0  0  0  0
 17 74  1  0  0  0  0
 18 19  1  0  0  0  0
 18 87  1  0  0  0  0
 19 20  2  0  0  0  0
 20 21  1  0  0  0  0
 20 73  1  0  0  0  0
 21 22  1  0  0  0  0
 21 88  1  0  0  0  0
 22 23  1  0  0  0  0
 22 70  2  0  0  0  0
 23 24  2  0  0  0  0
 23 89  1  0  0  0  0
 24 25  1  0  0  0  0
 24 90  1  0  0  0  0
 25 26  1  0  0  0  0
 25 69  2  0  0  0  0
 26 27  1  0  0  0  0
 26 68  1  0  0  0  0
 27 28  1  0  0  0  0
 27 91  1  0  0  0  0
 27 92  1  0  0  0  0
 28 29  1  0  0  0  0
 28 93  1  0  0  0  0
 28 94  1  0  0  0  0
 29 30  1  0  0  0  0
 29 67  1  0  0  0  0
 29 95  1  0  0  0  0
 30 31  1  0  0  0  0
 30 96  1  0  0  0  0
 30 97  1  0  0  0  0
 31 32  1  0  0  0  0
 31 98  1  0  0  0  0
 31 99  1  0  0  0  0
 32 33  1  0  0  0  0
 32100  1  0  0  0  0
 32101  1  0  0  0  0
 33 34  1  0  0  0  0
 33102  1  0  0  0  0
 33103  1  0  0  0  0
 34 35  1  0  0  0  0
 34104  1  0  0  0  0
 34105  1  0  0  0  0
 35 36  2  0  0  0  0
 35 37  1  0  0  0  0
 37 38  1  0  0  0  0
 37106  1  0  0  0  0
 38 39  1  0  0  0  0
 38 63  1  0  0  0  0
 38107  1  0  0  0  0
 39 40  2  0  0  0  0
 39 41  1  0  0  0  0
 41 42  1  0  0  0  0
 41 46  1  0  0  0  0
 42 43  1  0  0  0  0
 42108  1  0  0  0  0
 42109  1  0  0  0  0
 43 44  1  0  0  0  0
 43 45  1  0  0  0  0
 43110  1  0  0  0  0
 44111  1  0  0  0  0
 45 46  1  0  0  0  0
 45112  1  0  0  0  0
 45113  1  0  0  0  0
 46 47  1  0  0  0  0
 46114  1  0  0  0  0
 47 48  2  0  0  0  0
 47 49  1  0  0  0  0
 49 50  1  0  0  0  0
 49115  1  0  0  0  0
 50 51  1  0  0  0  0
 50116  1  0  0  0  0
 50117  1  0  0  0  0
 51 52  1  0  0  0  0
 51 62  2  0  0  0  0
 52 53  2  0  0  0  0
 52118  1  0  0  0  0
 53 54  1  0  0  0  0
 53119  1  0  0  0  0
 54 55  1  0  0  0  0
 54 61  2  0  0  0  0
 55 56  2  0  0  0  0
 55 60  1  0  0  0  0
 56 57  1  0  0  0  0
 56 58  1  0  0  0  0
 57120  1  0  0  0  0
 57121  1  0  0  0  0
 57122  1  0  0  0  0
 58 59  2  0  0  0  0
 59 60  1  0  0  0  0
 59123  1  0  0  0  0
 61 62  1  0  0  0  0
 61124  1  0  0  0  0
 62125  1  0  0  0  0
 63 64  1  0  0  0  0
 63 65  1  0  0  0  0
 63 66  1  0  0  0  0
 64126  1  0  0  0  0
 64127  1  0  0  0  0
 64128  1  0  0  0  0
 65129  1  0  0  0  0
 65130  1  0  0  0  0
 65131  1  0  0  0  0
 66132  1  0  0  0  0
 66133  1  0  0  0  0
 66134  1  0  0  0  0
 67 68  1  0  0  0  0
 67135  1  0  0  0  0
 67136  1  0  0  0  0
 68137  1  0  0  0  0
 68138  1  0  0  0  0
 69 70  1  0  0  0  0
 69139  1  0  0  0  0
 70 71  1  0  0  0  0
 71 72  1  0  0  0  0
 72140  1  0  0  0  0
 72141  1  0  0  0  0
 72142  1  0  0  0  0
 73 74  2  0  0  0  0
 75143  1  0  0  0  0
M  CHG  1  29   1
M  END
>  <Compound ID>
586

>  <Uniprot>
P00533

>  <Target>
EGFR L858R/T790M

>  <E3 ligase>
VHL

>  <DC50 (nM)>
5.9

>  <Assay (DC50/Dmax)>
Degradation of EGFR L858R/T790M in H1975 cells after 16h treatment

>  <Article DOI>
10.1016/j.ejmech.2020.112199

>  <Molecular Weight>
1038.2889

>  <Exact Mass>
1037.4945

>  <XLogP3>
6.2399998

>  <Heavy Atom Count>
75

>  <Ring Count>
8

>  <Hydrogen Bond Acceptor Count>
15

>  <Hydrogen Bond Donor Count>
5

>  <Rotatable Bond Count>
19

>  <Topological Polar Surface Area>
216.25

>  <Molecular Formula>
C56H67N11O7S

>  <InChI>
InChI=1S/C56H67N11O7S/c1-8-47(69)60-39-13-12-14-41(28-39)67-49(71)27-35(2)43-32-58-55(63-52(43)67)61-44-21-20-40(29-46(44)74-7)65-25-23-64(24-26-65)22-11-9-10-15-48(70)62-51(56(4,5)6)54(73)66-33-42(68)30-45(66)53(72)57-31-37-16-18-38(19-17-37)50-36(3)59-34-75-50/h8,12-14,16-21,27-29,32,34,42,45,51,68H,1,9-11,15,22-26,30-31,33H2,2-7H3,(H,57,72)(H,60,69)(H,62,70)(H,58,61,63)/t42-,45+,51-/m1/s1

>  <InChI Key>
CBWIPIZLLNOTMZ-PDMHGPQCSA-N

>  <IC50 (nM, Protac to Target)>
19.299999

>  <Assay (Protac to Target, IC50)>
Inhibition of EGFR L858R/T790M by ELISA

>  <IC50 (nM, Cellular activities)>
506

>  <Assay (Cellular activities, IC50)>
Inhibit proliferation of H1975 cells

$$$$
587
  MOE2018           3D

137144  0  0  1  0  0  0  0  0999 V2000
   -1.2670   -9.8300   -0.4750 C   0  0  0  0  0  0  0  0  0  0  0  0
   -1.6920  -11.1060   -0.6010 C   0  0  0  0  0  0  0  0  0  0  0  0
   -2.5080  -11.5780   -1.7160 C   0  0  0  0  0  0  0  0  0  0  0  0
   -2.7860  -10.9000   -2.6910 O   0  0  0  0  0  0  0  0  0  0  0  0
   -3.0050  -12.8480   -1.7510 N   0  0  0  0  0  0  0  0  0  0  0  0
   -2.9870  -13.7860   -0.7040 C   0  0  0  0  0  0  0  0  0  0  0  0
   -3.5150  -13.4530    0.5480 C   0  0  0  0  0  0  0  0  0  0  0  0
   -3.4930  -14.3940    1.5760 C   0  0  0  0  0  0  0  0  0  0  0  0
   -2.9530  -15.6600    1.3540 C   0  0  0  0  0  0  0  0  0  0  0  0
   -2.4400  -15.9710    0.0930 C   0  0  0  0  0  0  0  0  0  0  0  0
   -1.8830  -17.2640   -0.1310 N   0  0  0  0  0  0  0  0  0  0  0  0
   -2.7330  -18.3350   -0.4150 C   0  0  0  0  0  0  0  0  0  0  0  0
   -3.9450  -18.1270   -0.4770 O   0  0  0  0  0  0  0  0  0  0  0  0
   -2.1580  -19.6360   -0.6250 C   0  0  0  0  0  0  0  0  0  0  0  0
   -0.8180  -19.8540   -0.5620 C   0  0  0  0  0  0  0  0  0  0  0  0
   -0.2560  -21.2470   -0.7930 C   0  0  0  0  0  0  0  0  0  0  0  0
    0.0530  -18.7400   -0.2760 C   0  0  0  0  0  0  0  0  0  0  0  0
    1.4460  -18.8370   -0.1890 C   0  0  0  0  0  0  0  0  0  0  0  0
    2.1840  -17.7810    0.0640 N   0  0  0  0  0  0  0  0  0  0  0  0
    1.5750  -16.5930    0.2410 C   0  0  0  0  0  0  0  0  0  0  0  0
    2.2900  -15.4660    0.5080 N   0  0  0  0  0  0  0  0  0  0  0  0
    3.6880  -15.2100    0.5900 C   0  0  0  0  0  0  0  0  0  0  0  0
    4.6520  -16.0240   -0.0120 C   0  0  0  0  0  0  0  0  0  0  0  0
    6.0010  -15.6980    0.0930 C   0  0  0  0  0  0  0  0  0  0  0  0
    6.3930  -14.5460    0.7910 C   0  0  0  0  0  0  0  0  0  0  0  0
    7.7500  -14.1640    0.9000 N   0  0  0  0  0  0  0  0  0  0  0  0
    8.0810  -13.0140    0.0230 C   0  0  0  0  0  0  0  0  0  0  0  0
    9.4400  -12.4470    0.5130 C   0  0  0  0  0  0  0  0  0  0  0  0
   10.4920  -13.5260    0.4120 N   0  3  0  0  0  0  0  0  0  0  0  0
   11.7780  -12.9750    0.8720 C   0  0  0  0  0  0  0  0  0  0  0  0
   12.4050  -12.3490   -0.3810 C   0  0  0  0  0  0  0  0  0  0  0  0
   13.7170  -11.6530    0.0440 C   0  0  0  0  0  0  0  0  0  0  0  0
   14.4390  -11.0080   -1.1380 C   0  0  0  0  0  0  0  0  0  0  0  0
   14.1840  -11.3620   -2.2790 O   0  0  0  0  0  0  0  0  0  0  0  0
   15.3210  -10.0500   -0.8670 N   0  0  0  0  0  0  0  0  0  0  0  0
   16.1920   -9.4230   -1.8850 C   0  0  2  0  0  0  0  0  0  0  0  0
   17.5800   -9.0250   -1.2960 C   0  0  0  0  0  0  0  0  0  0  0  0
   18.5910   -9.2450   -1.9600 O   0  0  0  0  0  0  0  0  0  0  0  0
   17.7130   -8.5230   -0.0480 N   0  0  0  0  0  0  0  0  0  0  0  0
   16.7050   -7.8920    0.7960 C   0  0  0  0  0  0  0  0  0  0  0  0
   17.4540   -6.7880    1.5410 C   0  0  2  0  0  0  0  0  0  0  0  0
   17.5770   -5.6350    0.7340 O   0  0  0  0  0  0  0  0  0  0  0  0
   18.8290   -7.4110    1.7590 C   0  0  0  0  0  0  0  0  0  0  0  0
   19.0420   -8.3270    0.5440 C   0  0  1  0  0  0  0  0  0  0  0  0
   19.7490   -9.6520    0.9300 C   0  0  0  0  0  0  0  0  0  0  0  0
   19.1820  -10.4850    1.6360 O   0  0  0  0  0  0  0  0  0  0  0  0
   21.0170   -9.8190    0.5510 N   0  0  0  0  0  0  0  0  0  0  0  0
   21.7680  -11.0250    0.8450 C   0  0  0  0  0  0  0  0  0  0  0  0
   23.1970  -10.6010    0.5820 C   0  0  0  0  0  0  0  0  0  0  0  0
   23.7550  -10.7430   -0.6880 C   0  0  0  0  0  0  0  0  0  0  0  0
   25.0600  -10.3300   -0.9320 C   0  0  0  0  0  0  0  0  0  0  0  0
   25.8360   -9.7660    0.0870 C   0  0  0  0  0  0  0  0  0  0  0  0
   27.2040   -9.3290   -0.1640 C   0  0  0  0  0  0  0  0  0  0  0  0
   28.2350   -9.9990   -0.7750 C   0  0  0  0  0  0  0  0  0  0  0  0
   28.1560  -11.4070   -1.3150 C   0  0  0  0  0  0  0  0  0  0  0  0
   29.3980   -9.3070   -0.8810 N   0  0  0  0  0  0  0  0  0  0  0  0
   29.2810   -8.1250   -0.3500 C   0  0  0  0  0  0  0  0  0  0  0  0
   27.7370   -7.7710    0.3170 S   0  0  0  0  0  0  0  0  0  0  0  0
   25.2650   -9.6200    1.3550 C   0  0  0  0  0  0  0  0  0  0  0  0
   23.9600  -10.0330    1.6000 C   0  0  0  0  0  0  0  0  0  0  0  0
   15.4770   -8.2540   -2.6750 C   0  0  0  0  0  0  0  0  0  0  0  0
   14.0890   -7.8310   -2.1380 C   0  0  0  0  0  0  0  0  0  0  0  0
   15.2510   -8.7180   -4.1300 C   0  0  0  0  0  0  0  0  0  0  0  0
   16.3110   -6.9560   -2.7870 C   0  0  0  0  0  0  0  0  0  0  0  0
   10.0960  -14.6360    1.3490 C   0  0  0  0  0  0  0  0  0  0  0  0
    8.7590  -15.2500    0.8540 C   0  0  0  0  0  0  0  0  0  0  0  0
    5.4350  -13.7250    1.3910 C   0  0  0  0  0  0  0  0  0  0  0  0
    4.0860  -14.0580    1.2860 C   0  0  0  0  0  0  0  0  0  0  0  0
    3.0960  -13.2600    1.8610 O   0  0  0  0  0  0  0  0  0  0  0  0
    3.3440  -12.1300    2.7280 C   0  0  0  0  0  0  0  0  0  0  0  0
    0.2720  -16.4000    0.1910 N   0  0  0  0  0  0  0  0  0  0  0  0
   -0.4910  -17.4600   -0.0680 C   0  0  0  0  0  0  0  0  0  0  0  0
   -2.4530  -15.0480   -0.9500 C   0  0  0  0  0  0  0  0  0  0  0  0
   -1.5290   -9.0970   -1.2240 H   0  0  0  0  0  0  0  0  0  0  0  0
   -0.6650   -9.5430    0.3740 H   0  0  0  0  0  0  0  0  0  0  0  0
   -1.4130  -11.8150    0.1640 H   0  0  0  0  0  0  0  0  0  0  0  0
   -3.4290  -13.1450   -2.6180 H   0  0  0  0  0  0  0  0  0  0  0  0
   -3.9370  -12.4730    0.7170 H   0  0  0  0  0  0  0  0  0  0  0  0
   -3.8950  -14.1420    2.5460 H   0  0  0  0  0  0  0  0  0  0  0  0
   -2.9320  -16.3920    2.1480 H   0  0  0  0  0  0  0  0  0  0  0  0
   -2.8130  -20.4680   -0.8400 H   0  0  0  0  0  0  0  0  0  0  0  0
    0.8300  -21.2200   -0.7020 H   0  0  0  0  0  0  0  0  0  0  0  0
   -0.5280  -21.5880   -1.7920 H   0  0  0  0  0  0  0  0  0  0  0  0
   -0.6660  -21.9320   -0.0510 H   0  0  0  0  0  0  0  0  0  0  0  0
    1.9220  -19.7960   -0.3320 H   0  0  0  0  0  0  0  0  0  0  0  0
    1.7170  -14.6530    0.6820 H   0  0  0  0  0  0  0  0  0  0  0  0
    4.3500  -16.9050   -0.5580 H   0  0  0  0  0  0  0  0  0  0  0  0
    6.7470  -16.3320   -0.3630 H   0  0  0  0  0  0  0  0  0  0  0  0
    8.1650  -13.3450   -1.0120 H   0  0  0  0  0  0  0  0  0  0  0  0
    7.3070  -12.2500    0.0990 H   0  0  0  0  0  0  0  0  0  0  0  0
    9.3480  -12.1230    1.5500 H   0  0  0  0  0  0  0  0  0  0  0  0
    9.7270  -11.5990   -0.1080 H   0  0  0  0  0  0  0  0  0  0  0  0
   10.5740  -13.8590   -0.5380 H   0  0  0  0  0  0  0  0  0  0  0  0
   11.6190  -12.2190    1.6410 H   0  0  0  0  0  0  0  0  0  0  0  0
   12.4160  -13.7660    1.2670 H   0  0  0  0  0  0  0  0  0  0  0  0
   12.6180  -13.1250   -1.1160 H   0  0  0  0  0  0  0  0  0  0  0  0
   11.7210  -11.6180   -0.8120 H   0  0  0  0  0  0  0  0  0  0  0  0
   14.3770  -12.3940    0.4960 H   0  0  0  0  0  0  0  0  0  0  0  0
   13.4830  -10.8800    0.7760 H   0  0  0  0  0  0  0  0  0  0  0  0
   15.4010   -9.7330    0.0880 H   0  0  0  0  0  0  0  0  0  0  0  0
   16.3930  -10.1830   -2.6400 H   0  0  0  0  0  0  0  0  0  0  0  0
   15.9050   -7.4700    0.1880 H   0  0  0  0  0  0  0  0  0  0  0  0
   16.2860   -8.6130    1.4980 H   0  0  0  0  0  0  0  0  0  0  0  0
   16.9550   -6.4730    2.4580 H   0  0  0  0  0  0  0  0  0  0  0  0
   18.0150   -5.8950   -0.0790 H   0  0  0  0  0  0  0  0  0  0  0  0
   19.5980   -6.6400    1.7980 H   0  0  0  0  0  0  0  0  0  0  0  0
   18.8470   -7.9890    2.6830 H   0  0  0  0  0  0  0  0  0  0  0  0
   19.7160   -7.8780   -0.1860 H   0  0  0  0  0  0  0  0  0  0  0  0
   21.4720   -9.0770    0.0390 H   0  0  0  0  0  0  0  0  0  0  0  0
   21.6330  -11.3290    1.8830 H   0  0  0  0  0  0  0  0  0  0  0  0
   21.4730  -11.8420    0.1860 H   0  0  0  0  0  0  0  0  0  0  0  0
   23.1700  -11.1760   -1.4860 H   0  0  0  0  0  0  0  0  0  0  0  0
   25.4800  -10.4460   -1.9200 H   0  0  0  0  0  0  0  0  0  0  0  0
   27.1560  -11.8060   -1.1450 H   0  0  0  0  0  0  0  0  0  0  0  0
   28.8880  -12.0330   -0.8050 H   0  0  0  0  0  0  0  0  0  0  0  0
   28.3670  -11.3980   -2.3840 H   0  0  0  0  0  0  0  0  0  0  0  0
   30.0960   -7.4170   -0.3300 H   0  0  0  0  0  0  0  0  0  0  0  0
   25.8450   -9.1810    2.1540 H   0  0  0  0  0  0  0  0  0  0  0  0
   23.5350   -9.9130    2.5860 H   0  0  0  0  0  0  0  0  0  0  0  0
   13.6920   -7.0240   -2.7540 H   0  0  0  0  0  0  0  0  0  0  0  0
   14.1870   -7.4880   -1.1080 H   0  0  0  0  0  0  0  0  0  0  0  0
   13.4100   -8.6830   -2.1740 H   0  0  0  0  0  0  0  0  0  0  0  0
   14.7580   -7.9250   -4.6920 H   0  0  0  0  0  0  0  0  0  0  0  0
   14.6240   -9.6090   -4.1340 H   0  0  0  0  0  0  0  0  0  0  0  0
   16.2110   -8.9480   -4.5910 H   0  0  0  0  0  0  0  0  0  0  0  0
   15.7460   -6.2080   -3.3430 H   0  0  0  0  0  0  0  0  0  0  0  0
   17.2450   -7.1680   -3.3080 H   0  0  0  0  0  0  0  0  0  0  0  0
   16.5300   -6.5780   -1.7890 H   0  0  0  0  0  0  0  0  0  0  0  0
   10.8710  -15.4030    1.3580 H   0  0  0  0  0  0  0  0  0  0  0  0
    9.9670  -14.2380    2.3560 H   0  0  0  0  0  0  0  0  0  0  0  0
    8.4580  -16.0700    1.5050 H   0  0  0  0  0  0  0  0  0  0  0  0
    8.8690  -15.6180   -0.1660 H   0  0  0  0  0  0  0  0  0  0  0  0
    5.7370  -12.8400    1.9310 H   0  0  0  0  0  0  0  0  0  0  0  0
    2.3940  -11.6900    3.0320 H   0  0  0  0  0  0  0  0  0  0  0  0
    3.9350  -11.3860    2.1950 H   0  0  0  0  0  0  0  0  0  0  0  0
    3.8900  -12.4620    3.6110 H   0  0  0  0  0  0  0  0  0  0  0  0
   -2.0600  -15.3040   -1.9230 H   0  0  0  0  0  0  0  0  0  0  0  0
  1  2  2  0  0  0  0
  1 74  1  0  0  0  0
  1 75  1  0  0  0  0
  2  3  1  0  0  0  0
  2 76  1  0  0  0  0
  3  4  2  0  0  0  0
  3  5  1  0  0  0  0
  5  6  1  0  0  0  0
  5 77  1  0  0  0  0
  6  7  1  0  0  0  0
  6 73  2  0  0  0  0
  7  8  2  0  0  0  0
  7 78  1  0  0  0  0
  8  9  1  0  0  0  0
  8 79  1  0  0  0  0
  9 10  2  0  0  0  0
  9 80  1  0  0  0  0
 10 11  1  0  0  0  0
 10 73  1  0  0  0  0
 11 12  1  0  0  0  0
 11 72  1  0  0  0  0
 12 13  2  0  0  0  0
 12 14  1  0  0  0  0
 14 15  2  0  0  0  0
 14 81  1  0  0  0  0
 15 16  1  0  0  0  0
 15 17  1  0  0  0  0
 16 82  1  0  0  0  0
 16 83  1  0  0  0  0
 16 84  1  0  0  0  0
 17 18  2  0  0  0  0
 17 72  1  0  0  0  0
 18 19  1  0  0  0  0
 18 85  1  0  0  0  0
 19 20  2  0  0  0  0
 20 21  1  0  0  0  0
 20 71  1  0  0  0  0
 21 22  1  0  0  0  0
 21 86  1  0  0  0  0
 22 23  1  0  0  0  0
 22 68  2  0  0  0  0
 23 24  2  0  0  0  0
 23 87  1  0  0  0  0
 24 25  1  0  0  0  0
 24 88  1  0  0  0  0
 25 26  1  0  0  0  0
 25 67  2  0  0  0  0
 26 27  1  0  0  0  0
 26 66  1  0  0  0  0
 27 28  1  0  0  0  0
 27 89  1  0  0  0  0
 27 90  1  0  0  0  0
 28 29  1  0  0  0  0
 28 91  1  0  0  0  0
 28 92  1  0  0  0  0
 29 30  1  0  0  0  0
 29 65  1  0  0  0  0
 29 93  1  0  0  0  0
 30 31  1  0  0  0  0
 30 94  1  0  0  0  0
 30 95  1  0  0  0  0
 31 32  1  0  0  0  0
 31 96  1  0  0  0  0
 31 97  1  0  0  0  0
 32 33  1  0  0  0  0
 32 98  1  0  0  0  0
 32 99  1  0  0  0  0
 33 34  2  0  0  0  0
 33 35  1  0  0  0  0
 35 36  1  0  0  0  0
 35100  1  0  0  0  0
 36 37  1  0  0  0  0
 36 61  1  0  0  0  0
 36101  1  0  0  0  0
 37 38  2  0  0  0  0
 37 39  1  0  0  0  0
 39 40  1  0  0  0  0
 39 44  1  0  0  0  0
 40 41  1  0  0  0  0
 40102  1  0  0  0  0
 40103  1  0  0  0  0
 41 42  1  0  0  0  0
 41 43  1  0  0  0  0
 41104  1  0  0  0  0
 42105  1  0  0  0  0
 43 44  1  0  0  0  0
 43106  1  0  0  0  0
 43107  1  0  0  0  0
 44 45  1  0  0  0  0
 44108  1  0  0  0  0
 45 46  2  0  0  0  0
 45 47  1  0  0  0  0
 47 48  1  0  0  0  0
 47109  1  0  0  0  0
 48 49  1  0  0  0  0
 48110  1  0  0  0  0
 48111  1  0  0  0  0
 49 50  1  0  0  0  0
 49 60  2  0  0  0  0
 50 51  2  0  0  0  0
 50112  1  0  0  0  0
 51 52  1  0  0  0  0
 51113  1  0  0  0  0
 52 53  1  0  0  0  0
 52 59  2  0  0  0  0
 53 54  2  0  0  0  0
 53 58  1  0  0  0  0
 54 55  1  0  0  0  0
 54 56  1  0  0  0  0
 55114  1  0  0  0  0
 55115  1  0  0  0  0
 55116  1  0  0  0  0
 56 57  2  0  0  0  0
 57 58  1  0  0  0  0
 57117  1  0  0  0  0
 59 60  1  0  0  0  0
 59118  1  0  0  0  0
 60119  1  0  0  0  0
 61 62  1  0  0  0  0
 61 63  1  0  0  0  0
 61 64  1  0  0  0  0
 62120  1  0  0  0  0
 62121  1  0  0  0  0
 62122  1  0  0  0  0
 63123  1  0  0  0  0
 63124  1  0  0  0  0
 63125  1  0  0  0  0
 64126  1  0  0  0  0
 64127  1  0  0  0  0
 64128  1  0  0  0  0
 65 66  1  0  0  0  0
 65129  1  0  0  0  0
 65130  1  0  0  0  0
 66131  1  0  0  0  0
 66132  1  0  0  0  0
 67 68  1  0  0  0  0
 67133  1  0  0  0  0
 68 69  1  0  0  0  0
 69 70  1  0  0  0  0
 70134  1  0  0  0  0
 70135  1  0  0  0  0
 70136  1  0  0  0  0
 71 72  2  0  0  0  0
 73137  1  0  0  0  0
M  CHG  1  29   1
M  END
>  <Compound ID>
587

>  <Uniprot>
P00533

>  <Target>
EGFR L858R/T790M

>  <E3 ligase>
VHL

>  <DC50 (nM)>
>2000

>  <Assay (DC50/Dmax)>
Degradation of EGFR L858R/T790M in H1975 cells after 16h treatment

>  <Article DOI>
10.1016/j.ejmech.2020.112199

>  <Molecular Weight>
1010.235

>  <Exact Mass>
1009.4633

>  <XLogP3>
5.5300002

>  <Heavy Atom Count>
73

>  <Ring Count>
8

>  <Hydrogen Bond Acceptor Count>
15

>  <Hydrogen Bond Donor Count>
5

>  <Rotatable Bond Count>
17

>  <Topological Polar Surface Area>
216.25

>  <Molecular Formula>
C54H63N11O7S

>  <InChI>
InChI=1S/C54H63N11O7S/c1-8-45(67)58-37-11-9-12-39(26-37)65-47(69)25-33(2)41-30-56-53(61-50(41)65)59-42-19-18-38(27-44(42)72-7)63-23-21-62(22-24-63)20-10-13-46(68)60-49(54(4,5)6)52(71)64-31-40(66)28-43(64)51(70)55-29-35-14-16-36(17-15-35)48-34(3)57-32-73-48/h8-9,11-12,14-19,25-27,30,32,40,43,49,66H,1,10,13,20-24,28-29,31H2,2-7H3,(H,55,70)(H,58,67)(H,60,68)(H,56,59,61)/t40-,43+,49-/m1/s1

>  <InChI Key>
GHHZCEDRWNWCTG-PCGSYBQZSA-N

$$$$
