265
  MOE2022           3D

122127  0  0  1  0  0  0  0  0999 V2000
   11.4290  -19.7530   -2.3700 C   0  0  0  0  0  0  0  0  0  0  0  0
   11.7290  -18.3420   -1.9260 C   0  0  0  0  0  0  0  0  0  0  0  0
   10.9970  -17.6310   -1.0090 C   0  0  0  0  0  0  0  0  0  0  0  0
    9.7920  -18.0190   -0.2860 C   0  0  0  0  0  0  0  0  0  0  0  0
    8.6890  -18.5570   -0.9600 C   0  0  0  0  0  0  0  0  0  0  0  0
    7.5390  -18.9220   -0.2670 C   0  0  0  0  0  0  0  0  0  0  0  0
    7.4670  -18.7560    1.1150 C   0  0  0  0  0  0  0  0  0  0  0  0
    6.2130  -19.1370    1.8770 C   0  0  0  0  0  0  0  0  0  0  0  0
    5.4010  -17.9290    1.8560 N   0  0  0  0  0  0  0  0  0  0  0  0
    5.4480  -16.9940    2.8060 C   0  0  0  0  0  0  0  0  0  0  0  0
    6.0650  -17.1920    3.8520 O   0  0  0  0  0  0  0  0  0  0  0  0
    4.6900  -15.6500    2.5670 C   0  0  2  0  0  0  0  0  0  0  0  0
    4.5020  -14.8310    3.8570 C   0  0  0  0  0  0  0  0  0  0  0  0
    3.1930  -14.0850    3.6540 C   0  0  1  0  0  0  0  0  0  0  0  0
    3.4270  -12.9000    2.9200 O   0  0  0  0  0  0  0  0  0  0  0  0
    2.3930  -15.1030    2.8430 C   0  0  0  0  0  0  0  0  0  0  0  0
    3.3490  -15.7270    1.9380 N   0  0  0  0  0  0  0  0  0  0  0  0
    3.1570  -16.0470    0.6370 C   0  0  0  0  0  0  0  0  0  0  0  0
    4.1530  -16.3130   -0.0370 O   0  0  0  0  0  0  0  0  0  0  0  0
    1.7720  -16.1530   -0.1030 C   0  0  1  0  0  0  0  0  0  0  0  0
    0.8510  -17.2600    0.2360 N   0  0  0  0  0  0  0  0  0  0  0  0
    0.1550  -17.5080    1.3460 C   0  0  0  0  0  0  0  0  0  0  0  0
    0.1370  -16.7410    2.2960 O   0  0  0  0  0  0  0  0  0  0  0  0
   -0.6600  -18.7950    1.3560 C   0  0  0  0  0  0  0  0  0  0  0  0
   -1.0950  -19.0830   -0.0360 O   0  0  0  0  0  0  0  0  0  0  0  0
   -2.0560  -20.1570   -0.1970 C   0  0  0  0  0  0  0  0  0  0  0  0
   -2.4020  -20.1700   -1.6870 C   0  0  0  0  0  0  0  0  0  0  0  0
   -3.3780  -21.2290   -1.8620 O   0  0  0  0  0  0  0  0  0  0  0  0
   -4.7120  -21.1840   -1.5010 C   0  0  0  0  0  0  0  0  0  0  0  0
   -5.3420  -19.9950   -1.1180 C   0  0  0  0  0  0  0  0  0  0  0  0
   -6.6840  -20.0170   -0.7540 C   0  0  0  0  0  0  0  0  0  0  0  0
   -7.3860  -21.2240   -0.7720 C   0  0  0  0  0  0  0  0  0  0  0  0
   -8.7520  -21.1950   -0.4180 N   0  0  0  0  0  0  0  0  0  0  0  0
   -9.4760  -22.1240    0.2780 C   0  0  0  0  0  0  0  0  0  0  0  0
   -8.8760  -23.1700    0.8480 N   0  0  0  0  0  0  0  0  0  0  0  0
   -9.6270  -24.0280    1.5200 C   0  0  0  0  0  0  0  0  0  0  0  0
  -10.9930  -23.8390    1.6290 C   0  0  0  0  0  0  0  0  0  0  0  0
  -11.8620  -24.8220    2.3720 C   0  0  0  0  0  0  0  0  0  0  0  0
  -12.6150  -25.5090    1.5030 F   0  0  0  0  0  0  0  0  0  0  0  0
  -11.1060  -25.6930    3.0640 F   0  0  0  0  0  0  0  0  0  0  0  0
  -12.6670  -24.1790    3.2410 F   0  0  0  0  0  0  0  0  0  0  0  0
  -11.5320  -22.7160    1.0000 C   0  0  0  0  0  0  0  0  0  0  0  0
  -12.8790  -22.4300    1.0210 N   0  0  0  0  0  0  0  0  0  0  0  0
  -13.3900  -21.1390    0.5730 C   0  0  0  0  0  0  0  0  0  0  0  0
  -14.8770  -21.2420    0.8360 C   0  0  0  0  0  0  0  0  0  0  0  0
  -15.4050  -20.8690    2.0740 C   0  0  0  0  0  0  0  0  0  0  0  0
  -16.7750  -20.9700    2.3150 C   0  0  0  0  0  0  0  0  0  0  0  0
  -17.6250  -21.4440    1.3230 C   0  0  0  0  0  0  0  0  0  0  0  0
  -17.1010  -21.8160    0.0860 C   0  0  0  0  0  0  0  0  0  0  0  0
  -17.9970  -22.2800   -0.8880 N   0  0  0  0  0  0  0  0  0  0  0  0
  -17.6490  -23.5900   -1.4580 C   0  0  0  0  0  0  0  0  0  0  0  0
  -18.2530  -21.1870   -2.1340 S   0  0  0  0  0  0  0  0  0  0  0  0
  -18.7860  -19.6950   -1.3390 C   0  0  0  0  0  0  0  0  0  0  0  0
  -17.0190  -20.9320   -2.7890 O   0  0  0  0  0  0  0  0  0  0  0  0
  -19.3160  -21.6620   -2.9440 O   0  0  0  0  0  0  0  0  0  0  0  0
  -15.7270  -21.7220   -0.1580 C   0  0  0  0  0  0  0  0  0  0  0  0
  -10.7720  -21.8640    0.3350 N   0  0  0  0  0  0  0  0  0  0  0  0
   -6.7580  -22.4100   -1.1680 C   0  0  0  0  0  0  0  0  0  0  0  0
   -5.4160  -22.3860   -1.5320 C   0  0  0  0  0  0  0  0  0  0  0  0
    1.0430  -14.8380   -0.5760 C   0  0  0  0  0  0  0  0  0  0  0  0
    1.9730  -13.6090   -0.5470 C   0  0  0  0  0  0  0  0  0  0  0  0
   -0.2640  -14.4680    0.1620 C   0  0  0  0  0  0  0  0  0  0  0  0
    0.6160  -15.0150   -2.0520 C   0  0  0  0  0  0  0  0  0  0  0  0
    8.5570  -18.2100    1.7920 C   0  0  0  0  0  0  0  0  0  0  0  0
    9.7060  -17.8470    1.1000 C   0  0  0  0  0  0  0  0  0  0  0  0
   11.7050  -16.0850   -0.7800 S   0  0  0  0  0  0  0  0  0  0  0  0
   12.9050  -16.4960   -1.9390 C   0  0  0  0  0  0  0  0  0  0  0  0
   12.7990  -17.6890   -2.4500 N   0  0  0  0  0  0  0  0  0  0  0  0
   10.9580  -20.2910   -1.5480 H   0  0  0  0  0  0  0  0  0  0  0  0
   12.3710  -20.2300   -2.6400 H   0  0  0  0  0  0  0  0  0  0  0  0
   10.7700  -19.7000   -3.2360 H   0  0  0  0  0  0  0  0  0  0  0  0
    8.7270  -18.6760   -2.0110 H   0  0  0  0  0  0  0  0  0  0  0  0
    6.7120  -19.3190   -0.7970 H   0  0  0  0  0  0  0  0  0  0  0  0
    6.4720  -19.4130    2.8920 H   0  0  0  0  0  0  0  0  0  0  0  0
    5.6980  -19.9310    1.3520 H   0  0  0  0  0  0  0  0  0  0  0  0
    4.9790  -17.6410    0.9790 H   0  0  0  0  0  0  0  0  0  0  0  0
    5.3250  -15.0650    1.8990 H   0  0  0  0  0  0  0  0  0  0  0  0
    5.3380  -14.1530    4.0260 H   0  0  0  0  0  0  0  0  0  0  0  0
    4.3880  -15.5000    4.7110 H   0  0  0  0  0  0  0  0  0  0  0  0
    2.7050  -13.8590    4.6040 H   0  0  0  0  0  0  0  0  0  0  0  0
    3.7520  -13.1500    2.0510 H   0  0  0  0  0  0  0  0  0  0  0  0
    1.5880  -14.5980    2.3240 H   0  0  0  0  0  0  0  0  0  0  0  0
    1.9890  -15.8510    3.5270 H   0  0  0  0  0  0  0  0  0  0  0  0
    2.1550  -16.5260   -1.0530 H   0  0  0  0  0  0  0  0  0  0  0  0
    0.6680  -17.9280   -0.4990 H   0  0  0  0  0  0  0  0  0  0  0  0
   -1.5200  -18.6410    1.9930 H   0  0  0  0  0  0  0  0  0  0  0  0
   -0.0140  -19.5930    1.6940 H   0  0  0  0  0  0  0  0  0  0  0  0
   -1.6200  -21.1150    0.0880 H   0  0  0  0  0  0  0  0  0  0  0  0
   -2.9530  -19.9620    0.3930 H   0  0  0  0  0  0  0  0  0  0  0  0
   -1.5060  -20.3960   -2.2660 H   0  0  0  0  0  0  0  0  0  0  0  0
   -2.8030  -19.2070   -2.0000 H   0  0  0  0  0  0  0  0  0  0  0  0
   -4.8110  -19.0810   -1.1050 H   0  0  0  0  0  0  0  0  0  0  0  0
   -7.1720  -19.1250   -0.4580 H   0  0  0  0  0  0  0  0  0  0  0  0
   -9.3020  -20.3650   -0.6520 H   0  0  0  0  0  0  0  0  0  0  0  0
   -9.1420  -24.8620    1.9660 H   0  0  0  0  0  0  0  0  0  0  0  0
  -13.4610  -22.8740    1.7480 H   0  0  0  0  0  0  0  0  0  0  0  0
  -12.9670  -20.3410    1.1700 H   0  0  0  0  0  0  0  0  0  0  0  0
  -13.2110  -21.0150   -0.4890 H   0  0  0  0  0  0  0  0  0  0  0  0
  -14.7640  -20.5080    2.8390 H   0  0  0  0  0  0  0  0  0  0  0  0
  -17.1670  -20.6870    3.2590 H   0  0  0  0  0  0  0  0  0  0  0  0
  -18.6660  -21.5310    1.5010 H   0  0  0  0  0  0  0  0  0  0  0  0
  -17.4230  -24.2570   -0.6360 H   0  0  0  0  0  0  0  0  0  0  0  0
  -16.7920  -23.4770   -2.1120 H   0  0  0  0  0  0  0  0  0  0  0  0
  -18.5100  -23.9520   -2.0070 H   0  0  0  0  0  0  0  0  0  0  0  0
  -18.0270  -19.2450   -0.7180 H   0  0  0  0  0  0  0  0  0  0  0  0
  -19.6560  -19.8400   -0.7170 H   0  0  0  0  0  0  0  0  0  0  0  0
  -19.0750  -18.9340   -2.0470 H   0  0  0  0  0  0  0  0  0  0  0  0
  -15.3350  -22.0100   -1.0990 H   0  0  0  0  0  0  0  0  0  0  0  0
   -7.3010  -23.3180   -1.1970 H   0  0  0  0  0  0  0  0  0  0  0  0
   -4.9250  -23.2740   -1.8320 H   0  0  0  0  0  0  0  0  0  0  0  0
    1.4790  -12.7460   -0.9960 H   0  0  0  0  0  0  0  0  0  0  0  0
    2.8900  -13.8110   -1.1030 H   0  0  0  0  0  0  0  0  0  0  0  0
    2.2280  -13.3500    0.4790 H   0  0  0  0  0  0  0  0  0  0  0  0
   -0.6920  -13.5560   -0.2550 H   0  0  0  0  0  0  0  0  0  0  0  0
   -0.0940  -14.2990    1.2200 H   0  0  0  0  0  0  0  0  0  0  0  0
   -1.0000  -15.2650    0.0560 H   0  0  0  0  0  0  0  0  0  0  0  0
    0.0970  -14.1260   -2.4140 H   0  0  0  0  0  0  0  0  0  0  0  0
   -0.0550  -15.8690   -2.1500 H   0  0  0  0  0  0  0  0  0  0  0  0
    1.4890  -15.1790   -2.6870 H   0  0  0  0  0  0  0  0  0  0  0  0
    8.5060  -18.0640    2.8420 H   0  0  0  0  0  0  0  0  0  0  0  0
   10.5270  -17.4330    1.6270 H   0  0  0  0  0  0  0  0  0  0  0  0
   13.6610  -15.7970   -2.1900 H   0  0  0  0  0  0  0  0  0  0  0  0
  1  2  1  0  0  0  0
  1 69  1  0  0  0  0
  1 70  1  0  0  0  0
  1 71  1  0  0  0  0
  2  3  2  0  0  0  0
  2 68  1  0  0  0  0
  3  4  1  0  0  0  0
  3 66  1  0  0  0  0
  4  5  1  0  0  0  0
  4 65  2  0  0  0  0
  5  6  2  0  0  0  0
  5 72  1  0  0  0  0
  6  7  1  0  0  0  0
  6 73  1  0  0  0  0
  7  8  1  0  0  0  0
  7 64  2  0  0  0  0
  8  9  1  0  0  0  0
  8 74  1  0  0  0  0
  8 75  1  0  0  0  0
  9 10  1  0  0  0  0
  9 76  1  0  0  0  0
 10 11  2  0  0  0  0
 10 12  1  0  0  0  0
 12 13  1  0  0  0  0
 12 17  1  0  0  0  0
 12 77  1  0  0  0  0
 13 14  1  0  0  0  0
 13 78  1  0  0  0  0
 13 79  1  0  0  0  0
 14 15  1  0  0  0  0
 14 16  1  0  0  0  0
 14 80  1  0  0  0  0
 15 81  1  0  0  0  0
 16 17  1  0  0  0  0
 16 82  1  0  0  0  0
 16 83  1  0  0  0  0
 17 18  1  0  0  0  0
 18 19  2  0  0  0  0
 18 20  1  0  0  0  0
 20 21  1  0  0  0  0
 20 60  1  0  0  0  0
 20 84  1  0  0  0  0
 21 22  1  0  0  0  0
 21 85  1  0  0  0  0
 22 23  2  0  0  0  0
 22 24  1  0  0  0  0
 24 25  1  0  0  0  0
 24 86  1  0  0  0  0
 24 87  1  0  0  0  0
 25 26  1  0  0  0  0
 26 27  1  0  0  0  0
 26 88  1  0  0  0  0
 26 89  1  0  0  0  0
 27 28  1  0  0  0  0
 27 90  1  0  0  0  0
 27 91  1  0  0  0  0
 28 29  1  0  0  0  0
 29 30  1  0  0  0  0
 29 59  2  0  0  0  0
 30 31  2  0  0  0  0
 30 92  1  0  0  0  0
 31 32  1  0  0  0  0
 31 93  1  0  0  0  0
 32 33  1  0  0  0  0
 32 58  2  0  0  0  0
 33 34  1  0  0  0  0
 33 94  1  0  0  0  0
 34 35  1  0  0  0  0
 34 57  2  0  0  0  0
 35 36  2  0  0  0  0
 36 37  1  0  0  0  0
 36 95  1  0  0  0  0
 37 38  1  0  0  0  0
 37 42  2  0  0  0  0
 38 39  1  0  0  0  0
 38 40  1  0  0  0  0
 38 41  1  0  0  0  0
 42 43  1  0  0  0  0
 42 57  1  0  0  0  0
 43 44  1  0  0  0  0
 43 96  1  0  0  0  0
 44 45  1  0  0  0  0
 44 97  1  0  0  0  0
 44 98  1  0  0  0  0
 45 46  1  0  0  0  0
 45 56  2  0  0  0  0
 46 47  2  0  0  0  0
 46 99  1  0  0  0  0
 47 48  1  0  0  0  0
 47100  1  0  0  0  0
 48 49  2  0  0  0  0
 48101  1  0  0  0  0
 49 50  1  0  0  0  0
 49 56  1  0  0  0  0
 50 51  1  0  0  0  0
 50 52  1  0  0  0  0
 51102  1  0  0  0  0
 51103  1  0  0  0  0
 51104  1  0  0  0  0
 52 53  1  0  0  0  0
 52 54  2  0  0  0  0
 52 55  2  0  0  0  0
 53105  1  0  0  0  0
 53106  1  0  0  0  0
 53107  1  0  0  0  0
 56108  1  0  0  0  0
 58 59  1  0  0  0  0
 58109  1  0  0  0  0
 59110  1  0  0  0  0
 60 61  1  0  0  0  0
 60 62  1  0  0  0  0
 60 63  1  0  0  0  0
 61111  1  0  0  0  0
 61112  1  0  0  0  0
 61113  1  0  0  0  0
 62114  1  0  0  0  0
 62115  1  0  0  0  0
 62116  1  0  0  0  0
 63117  1  0  0  0  0
 63118  1  0  0  0  0
 63119  1  0  0  0  0
 64 65  1  0  0  0  0
 64120  1  0  0  0  0
 65121  1  0  0  0  0
 66 67  1  0  0  0  0
 67 68  2  0  0  0  0
 67122  1  0  0  0  0
M  END
>  <Compound ID>
265

>  <Uniprot>
Q05397

>  <Target>
FAK

>  <E3 ligase>
VHL

>  <DC50 (nM)>
23.2

>  <Dmax (%)>
99

>  <Assay (DC50/Dmax)>
Degradation of Fak in PC3 cells after 24 h treatment

>  <IC50 (nM, Protac to Target)>
10.7

>  <Assay (Protac to Target, IC50)>
Inhibition of Fak

>  <Article DOI>
10.1021/jacs.8b08008

>  <Molecular Weight>
982.12097

>  <Exact Mass>
981.34888

>  <XLogP3>
5.8600001

>  <Heavy Atom Count>
68

>  <Ring Count>
6

>  <Hydrogen Bond Acceptor Count>
14

>  <Hydrogen Bond Donor Count>
5

>  <Rotatable Bond Count>
19

>  <Topological Polar Surface Area>
217.31

>  <Molecular Formula>
C46H54F3N9O8S2

>  <InChI>
InChI=1S/C46H54F3N9O8S2/c1-28-39(67-27-53-28)31-12-10-29(11-13-31)22-51-42(61)37-21-34(59)25-58(37)43(62)40(45(2,3)4)55-38(60)26-65-18-19-66-35-16-14-32(15-17-35)54-44-52-24-36(46(47,48)49)41(56-44)50-23-30-8-7-9-33(20-30)57(5)68(6,63)64/h7-17,20,24,27,34,37,40,59H,18-19,21-23,25-26H2,1-6H3,(H,51,61)(H,55,60)(H2,50,52,54,56)/t34-,37+,40-/m1/s1

>  <InChI Key>
SSNVICBSSPQZQX-WPPCIPCFSA-N

$$$$
266
  MOE2022           3D

125130  0  0  1  0  0  0  0  0999 V2000
   -9.3640  -16.4880   -1.9530 C   0  0  0  0  0  0  0  0  0  0  0  0
   -8.9290  -17.8940   -2.2920 C   0  0  0  0  0  0  0  0  0  0  0  0
   -7.9000  -18.5700   -1.6870 C   0  0  0  0  0  0  0  0  0  0  0  0
   -6.9930  -18.1240   -0.6350 C   0  0  0  0  0  0  0  0  0  0  0  0
   -6.3270  -16.8960   -0.7270 C   0  0  0  0  0  0  0  0  0  0  0  0
   -5.4640  -16.4760    0.2800 C   0  0  0  0  0  0  0  0  0  0  0  0
   -5.2460  -17.2760    1.4010 C   0  0  0  0  0  0  0  0  0  0  0  0
   -4.2980  -16.8330    2.4980 C   0  0  0  0  0  0  0  0  0  0  0  0
   -3.0120  -17.3890    2.1020 N   0  0  0  0  0  0  0  0  0  0  0  0
   -2.5800  -18.5920    2.4830 C   0  0  0  0  0  0  0  0  0  0  0  0
   -3.1660  -19.2200    3.3640 O   0  0  0  0  0  0  0  0  0  0  0  0
   -1.2930  -19.1570    1.8090 C   0  0  2  0  0  0  0  0  0  0  0  0
   -0.7590  -20.4400    2.4690 C   0  0  0  0  0  0  0  0  0  0  0  0
    0.7500  -20.3660    2.2900 C   0  0  1  0  0  0  0  0  0  0  0  0
    1.1200  -20.8720    1.0220 O   0  0  0  0  0  0  0  0  0  0  0  0
    1.0000  -18.8620    2.3920 C   0  0  0  0  0  0  0  0  0  0  0  0
   -0.1410  -18.2320    1.7240 N   0  0  0  0  0  0  0  0  0  0  0  0
   -0.0880  -17.2420    0.8050 C   0  0  0  0  0  0  0  0  0  0  0  0
   -1.0870  -16.9830    0.1320 O   0  0  0  0  0  0  0  0  0  0  0  0
    1.2220  -16.4200    0.5790 C   0  0  1  0  0  0  0  0  0  0  0  0
    1.7250  -16.5730   -0.7930 N   0  0  0  0  0  0  0  0  0  0  0  0
    2.0680  -17.7500   -1.3180 C   0  0  0  0  0  0  0  0  0  0  0  0
    2.0360  -18.7740   -0.6370 O   0  0  0  0  0  0  0  0  0  0  0  0
    2.5520  -17.7570   -2.7610 C   0  0  0  0  0  0  0  0  0  0  0  0
    3.9150  -17.1930   -2.7760 O   0  0  0  0  0  0  0  0  0  0  0  0
    4.9580  -18.0270   -2.2190 C   0  0  0  0  0  0  0  0  0  0  0  0
    6.2240  -17.1770   -2.2780 C   0  0  0  0  0  0  0  0  0  0  0  0
    7.3990  -17.9670   -1.7030 C   0  0  0  0  0  0  0  0  0  0  0  0
    8.5430  -17.0970   -1.8150 O   0  0  0  0  0  0  0  0  0  0  0  0
    9.8300  -17.4840   -1.4930 C   0  0  0  0  0  0  0  0  0  0  0  0
   10.8600  -16.6010   -1.8090 C   0  0  0  0  0  0  0  0  0  0  0  0
   12.1770  -16.9450   -1.5220 C   0  0  0  0  0  0  0  0  0  0  0  0
   12.4520  -18.1750   -0.9200 C   0  0  0  0  0  0  0  0  0  0  0  0
   13.8000  -18.4840   -0.6340 N   0  0  0  0  0  0  0  0  0  0  0  0
   14.4370  -19.6900   -0.7480 C   0  0  0  0  0  0  0  0  0  0  0  0
   13.8060  -20.7520   -1.2510 N   0  0  0  0  0  0  0  0  0  0  0  0
   14.4790  -21.8870   -1.3520 C   0  0  0  0  0  0  0  0  0  0  0  0
   15.7970  -21.9670   -0.9400 C   0  0  0  0  0  0  0  0  0  0  0  0
   16.5790  -23.2490   -1.0720 C   0  0  0  0  0  0  0  0  0  0  0  0
   17.2050  -23.5430    0.0850 F   0  0  0  0  0  0  0  0  0  0  0  0
   17.4920  -23.1250   -2.0450 F   0  0  0  0  0  0  0  0  0  0  0  0
   15.7620  -24.2730   -1.3800 F   0  0  0  0  0  0  0  0  0  0  0  0
   16.3740  -20.8050   -0.4270 C   0  0  0  0  0  0  0  0  0  0  0  0
   17.6810  -20.7540    0.0040 N   0  0  0  0  0  0  0  0  0  0  0  0
   18.1630  -19.6470    0.8240 C   0  0  0  0  0  0  0  0  0  0  0  0
   19.6120  -20.0080    1.0750 C   0  0  0  0  0  0  0  0  0  0  0  0
   19.9890  -20.6410    2.2600 C   0  0  0  0  0  0  0  0  0  0  0  0
   21.3230  -20.9700    2.4830 C   0  0  0  0  0  0  0  0  0  0  0  0
   22.2870  -20.6770    1.5260 C   0  0  0  0  0  0  0  0  0  0  0  0
   21.9180  -20.0470    0.3310 C   0  0  0  0  0  0  0  0  0  0  0  0
   22.9110  -19.7810   -0.6500 N   0  0  0  0  0  0  0  0  0  0  0  0
   22.4890  -19.4870   -2.0310 C   0  0  0  0  0  0  0  0  0  0  0  0
   24.2440  -18.8670   -0.1650 S   0  0  0  0  0  0  0  0  0  0  0  0
   25.5470  -20.0570   -0.0030 C   0  0  0  0  0  0  0  0  0  0  0  0
   24.6020  -17.9720   -1.2070 O   0  0  0  0  0  0  0  0  0  0  0  0
   24.0060  -18.2950    1.1110 O   0  0  0  0  0  0  0  0  0  0  0  0
   20.5740  -19.7160    0.1110 C   0  0  0  0  0  0  0  0  0  0  0  0
   15.6940  -19.6750   -0.3370 N   0  0  0  0  0  0  0  0  0  0  0  0
   11.4170  -19.0540   -0.5860 C   0  0  0  0  0  0  0  0  0  0  0  0
   10.1010  -18.7100   -0.8760 C   0  0  0  0  0  0  0  0  0  0  0  0
    1.1040  -14.9080    0.9590 C   0  0  0  0  0  0  0  0  0  0  0  0
    0.5920  -14.7590    2.4060 C   0  0  0  0  0  0  0  0  0  0  0  0
    2.4980  -14.2430    0.9100 C   0  0  0  0  0  0  0  0  0  0  0  0
    0.1720  -14.0910    0.0390 C   0  0  0  0  0  0  0  0  0  0  0  0
   -5.8950  -18.5060    1.4930 C   0  0  0  0  0  0  0  0  0  0  0  0
   -6.7580  -18.9260    0.4870 C   0  0  0  0  0  0  0  0  0  0  0  0
   -7.7700  -20.1430   -2.3580 S   0  0  0  0  0  0  0  0  0  0  0  0
   -9.0790  -19.7710   -3.4070 C   0  0  0  0  0  0  0  0  0  0  0  0
   -9.5830  -18.5790   -3.2660 N   0  0  0  0  0  0  0  0  0  0  0  0
   -9.1740  -16.3030   -0.8960 H   0  0  0  0  0  0  0  0  0  0  0  0
  -10.4300  -16.4040   -2.1640 H   0  0  0  0  0  0  0  0  0  0  0  0
   -8.7990  -15.8010   -2.5810 H   0  0  0  0  0  0  0  0  0  0  0  0
   -6.4750  -16.2850   -1.5790 H   0  0  0  0  0  0  0  0  0  0  0  0
   -4.9640  -15.5460    0.1870 H   0  0  0  0  0  0  0  0  0  0  0  0
   -4.6220  -17.2430    3.4470 H   0  0  0  0  0  0  0  0  0  0  0  0
   -4.2380  -15.7530    2.5130 H   0  0  0  0  0  0  0  0  0  0  0  0
   -2.5230  -16.9770    1.3130 H   0  0  0  0  0  0  0  0  0  0  0  0
   -1.5730  -19.4170    0.7860 H   0  0  0  0  0  0  0  0  0  0  0  0
   -1.1780  -21.3300    2.0010 H   0  0  0  0  0  0  0  0  0  0  0  0
   -0.9820  -20.4380    3.5360 H   0  0  0  0  0  0  0  0  0  0  0  0
    1.2690  -20.9120    3.0800 H   0  0  0  0  0  0  0  0  0  0  0  0
    1.3110  -20.1290    0.4200 H   0  0  0  0  0  0  0  0  0  0  0  0
    1.9620  -18.6500    1.9290 H   0  0  0  0  0  0  0  0  0  0  0  0
    1.0230  -18.5660    3.4420 H   0  0  0  0  0  0  0  0  0  0  0  0
    1.9910  -16.8120    1.2360 H   0  0  0  0  0  0  0  0  0  0  0  0
    1.8080  -15.7460   -1.3570 H   0  0  0  0  0  0  0  0  0  0  0  0
    1.9060  -17.1120   -3.3400 H   0  0  0  0  0  0  0  0  0  0  0  0
    2.5700  -18.7780   -3.1190 H   0  0  0  0  0  0  0  0  0  0  0  0
    4.7310  -18.2900   -1.1840 H   0  0  0  0  0  0  0  0  0  0  0  0
    5.0810  -18.9320   -2.8190 H   0  0  0  0  0  0  0  0  0  0  0  0
    6.0780  -16.2650   -1.6980 H   0  0  0  0  0  0  0  0  0  0  0  0
    6.4350  -16.9090   -3.3140 H   0  0  0  0  0  0  0  0  0  0  0  0
    7.5640  -18.8750   -2.2860 H   0  0  0  0  0  0  0  0  0  0  0  0
    7.2150  -18.2110   -0.6560 H   0  0  0  0  0  0  0  0  0  0  0  0
   10.6320  -15.6750   -2.2700 H   0  0  0  0  0  0  0  0  0  0  0  0
   12.9670  -16.2830   -1.7640 H   0  0  0  0  0  0  0  0  0  0  0  0
   14.4470  -17.7190   -0.4290 H   0  0  0  0  0  0  0  0  0  0  0  0
   13.9700  -22.7250   -1.7620 H   0  0  0  0  0  0  0  0  0  0  0  0
   18.1550  -21.6460    0.2140 H   0  0  0  0  0  0  0  0  0  0  0  0
   18.1110  -18.7180    0.2700 H   0  0  0  0  0  0  0  0  0  0  0  0
   17.6230  -19.6140    1.7620 H   0  0  0  0  0  0  0  0  0  0  0  0
   19.2630  -20.8720    2.9970 H   0  0  0  0  0  0  0  0  0  0  0  0
   21.6050  -21.4460    3.3870 H   0  0  0  0  0  0  0  0  0  0  0  0
   23.2960  -20.9330    1.7030 H   0  0  0  0  0  0  0  0  0  0  0  0
   21.7190  -20.1970   -2.3050 H   0  0  0  0  0  0  0  0  0  0  0  0
   23.3460  -19.6100   -2.6810 H   0  0  0  0  0  0  0  0  0  0  0  0
   22.1200  -18.4690   -2.0620 H   0  0  0  0  0  0  0  0  0  0  0  0
   25.7270  -20.6080   -0.9130 H   0  0  0  0  0  0  0  0  0  0  0  0
   25.3720  -20.7860    0.7720 H   0  0  0  0  0  0  0  0  0  0  0  0
   26.4940  -19.5980    0.2380 H   0  0  0  0  0  0  0  0  0  0  0  0
   20.2770  -19.2370   -0.7830 H   0  0  0  0  0  0  0  0  0  0  0  0
   11.6330  -19.9750   -0.1110 H   0  0  0  0  0  0  0  0  0  0  0  0
    9.3200  -19.3770   -0.6260 H   0  0  0  0  0  0  0  0  0  0  0  0
    0.5820  -13.7080    2.6990 H   0  0  0  0  0  0  0  0  0  0  0  0
    1.2360  -15.3070    3.0960 H   0  0  0  0  0  0  0  0  0  0  0  0
   -0.4260  -15.1450    2.4940 H   0  0  0  0  0  0  0  0  0  0  0  0
    2.4360  -13.2050    1.2410 H   0  0  0  0  0  0  0  0  0  0  0  0
    2.8950  -14.2530   -0.1060 H   0  0  0  0  0  0  0  0  0  0  0  0
    3.1950  -14.7720    1.5610 H   0  0  0  0  0  0  0  0  0  0  0  0
    0.1670  -13.0430    0.3410 H   0  0  0  0  0  0  0  0  0  0  0  0
   -0.8500  -14.4640    0.0980 H   0  0  0  0  0  0  0  0  0  0  0  0
    0.5040  -14.1490   -0.9970 H   0  0  0  0  0  0  0  0  0  0  0  0
   -5.7220  -19.1310    2.3340 H   0  0  0  0  0  0  0  0  0  0  0  0
   -7.2440  -19.8630    0.5720 H   0  0  0  0  0  0  0  0  0  0  0  0
   -9.4220  -20.4930   -4.1040 H   0  0  0  0  0  0  0  0  0  0  0  0
  1  2  1  0  0  0  0
  1 70  1  0  0  0  0
  1 71  1  0  0  0  0
  1 72  1  0  0  0  0
  2  3  2  0  0  0  0
  2 69  1  0  0  0  0
  3  4  1  0  0  0  0
  3 67  1  0  0  0  0
  4  5  1  0  0  0  0
  4 66  2  0  0  0  0
  5  6  2  0  0  0  0
  5 73  1  0  0  0  0
  6  7  1  0  0  0  0
  6 74  1  0  0  0  0
  7  8  1  0  0  0  0
  7 65  2  0  0  0  0
  8  9  1  0  0  0  0
  8 75  1  0  0  0  0
  8 76  1  0  0  0  0
  9 10  1  0  0  0  0
  9 77  1  0  0  0  0
 10 11  2  0  0  0  0
 10 12  1  0  0  0  0
 12 13  1  0  0  0  0
 12 17  1  0  0  0  0
 12 78  1  0  0  0  0
 13 14  1  0  0  0  0
 13 79  1  0  0  0  0
 13 80  1  0  0  0  0
 14 15  1  0  0  0  0
 14 16  1  0  0  0  0
 14 81  1  0  0  0  0
 15 82  1  0  0  0  0
 16 17  1  0  0  0  0
 16 83  1  0  0  0  0
 16 84  1  0  0  0  0
 17 18  1  0  0  0  0
 18 19  2  0  0  0  0
 18 20  1  0  0  0  0
 20 21  1  0  0  0  0
 20 61  1  0  0  0  0
 20 85  1  0  0  0  0
 21 22  1  0  0  0  0
 21 86  1  0  0  0  0
 22 23  2  0  0  0  0
 22 24  1  0  0  0  0
 24 25  1  0  0  0  0
 24 87  1  0  0  0  0
 24 88  1  0  0  0  0
 25 26  1  0  0  0  0
 26 27  1  0  0  0  0
 26 89  1  0  0  0  0
 26 90  1  0  0  0  0
 27 28  1  0  0  0  0
 27 91  1  0  0  0  0
 27 92  1  0  0  0  0
 28 29  1  0  0  0  0
 28 93  1  0  0  0  0
 28 94  1  0  0  0  0
 29 30  1  0  0  0  0
 30 31  1  0  0  0  0
 30 60  2  0  0  0  0
 31 32  2  0  0  0  0
 31 95  1  0  0  0  0
 32 33  1  0  0  0  0
 32 96  1  0  0  0  0
 33 34  1  0  0  0  0
 33 59  2  0  0  0  0
 34 35  1  0  0  0  0
 34 97  1  0  0  0  0
 35 36  1  0  0  0  0
 35 58  2  0  0  0  0
 36 37  2  0  0  0  0
 37 38  1  0  0  0  0
 37 98  1  0  0  0  0
 38 39  1  0  0  0  0
 38 43  2  0  0  0  0
 39 40  1  0  0  0  0
 39 41  1  0  0  0  0
 39 42  1  0  0  0  0
 43 44  1  0  0  0  0
 43 58  1  0  0  0  0
 44 45  1  0  0  0  0
 44 99  1  0  0  0  0
 45 46  1  0  0  0  0
 45100  1  0  0  0  0
 45101  1  0  0  0  0
 46 47  1  0  0  0  0
 46 57  2  0  0  0  0
 47 48  2  0  0  0  0
 47102  1  0  0  0  0
 48 49  1  0  0  0  0
 48103  1  0  0  0  0
 49 50  2  0  0  0  0
 49104  1  0  0  0  0
 50 51  1  0  0  0  0
 50 57  1  0  0  0  0
 51 52  1  0  0  0  0
 51 53  1  0  0  0  0
 52105  1  0  0  0  0
 52106  1  0  0  0  0
 52107  1  0  0  0  0
 53 54  1  0  0  0  0
 53 55  2  0  0  0  0
 53 56  2  0  0  0  0
 54108  1  0  0  0  0
 54109  1  0  0  0  0
 54110  1  0  0  0  0
 57111  1  0  0  0  0
 59 60  1  0  0  0  0
 59112  1  0  0  0  0
 60113  1  0  0  0  0
 61 62  1  0  0  0  0
 61 63  1  0  0  0  0
 61 64  1  0  0  0  0
 62114  1  0  0  0  0
 62115  1  0  0  0  0
 62116  1  0  0  0  0
 63117  1  0  0  0  0
 63118  1  0  0  0  0
 63119  1  0  0  0  0
 64120  1  0  0  0  0
 64121  1  0  0  0  0
 64122  1  0  0  0  0
 65 66  1  0  0  0  0
 65123  1  0  0  0  0
 66124  1  0  0  0  0
 67 68  1  0  0  0  0
 68 69  2  0  0  0  0
 68125  1  0  0  0  0
M  END
>  <Compound ID>
266

>  <Uniprot>
Q05397

>  <Target>
FAK

>  <E3 ligase>
VHL

>  <DC50 (nM)>
7.6

>  <Dmax (%)>
99

>  <Assay (DC50/Dmax)>
Degradation of Fak in PC3 cells after 24 h treatment

>  <IC50 (nM, Protac to Target)>
14.7

>  <Assay (Protac to Target, IC50)>
Inhibition of Fak

>  <Article DOI>
10.1021/jacs.8b08008

>  <Molecular Weight>
996.14801

>  <Exact Mass>
995.36456

>  <XLogP3>
6.2199998

>  <Heavy Atom Count>
69

>  <Ring Count>
6

>  <Hydrogen Bond Acceptor Count>
14

>  <Hydrogen Bond Donor Count>
5

>  <Rotatable Bond Count>
20

>  <Topological Polar Surface Area>
217.31

>  <Molecular Formula>
C47H56F3N9O8S2

>  <InChI>
InChI=1S/C47H56F3N9O8S2/c1-29-40(68-28-54-29)32-13-11-30(12-14-32)23-52-43(62)38-22-35(60)26-59(38)44(63)41(46(2,3)4)56-39(61)27-66-19-8-20-67-36-17-15-33(16-18-36)55-45-53-25-37(47(48,49)50)42(57-45)51-24-31-9-7-10-34(21-31)58(5)69(6,64)65/h7,9-18,21,25,28,35,38,41,60H,8,19-20,22-24,26-27H2,1-6H3,(H,52,62)(H,56,61)(H2,51,53,55,57)/t35-,38+,41-/m1/s1

>  <InChI Key>
SHPXUUGJMCCMIO-LFHXYJAASA-N

$$$$
267
  MOE2022           3D

125130  0  0  1  0  0  0  0  0999 V2000
  -19.4960  -18.5570   -2.5180 C   0  0  0  0  0  0  0  0  0  0  0  0
  -20.0880  -17.1810   -2.7180 C   0  0  0  0  0  0  0  0  0  0  0  0
  -19.5870  -16.0310   -2.1650 C   0  0  0  0  0  0  0  0  0  0  0  0
  -18.4160  -15.8630   -1.3160 C   0  0  0  0  0  0  0  0  0  0  0  0
  -17.1550  -16.2990   -1.7380 C   0  0  0  0  0  0  0  0  0  0  0  0
  -16.0450  -16.1700   -0.9110 C   0  0  0  0  0  0  0  0  0  0  0  0
  -16.1720  -15.5980    0.3540 C   0  0  0  0  0  0  0  0  0  0  0  0
  -14.9750  -15.4990    1.2790 C   0  0  0  0  0  0  0  0  0  0  0  0
  -14.8480  -16.8440    1.8120 N   0  0  0  0  0  0  0  0  0  0  0  0
  -15.5260  -17.2670    2.8850 C   0  0  0  0  0  0  0  0  0  0  0  0
  -16.0370  -16.4720    3.6710 O   0  0  0  0  0  0  0  0  0  0  0  0
  -15.5950  -18.7930    3.1710 C   0  0  2  0  0  0  0  0  0  0  0  0
  -14.8800  -19.1530    4.4840 C   0  0  0  0  0  0  0  0  0  0  0  0
  -14.1360  -20.4540    4.2000 C   0  0  1  0  0  0  0  0  0  0  0  0
  -14.9850  -21.5570    4.4390 O   0  0  0  0  0  0  0  0  0  0  0  0
  -13.8220  -20.3340    2.7110 C   0  0  0  0  0  0  0  0  0  0  0  0
  -14.9750  -19.6490    2.1420 N   0  0  0  0  0  0  0  0  0  0  0  0
  -15.5670  -19.8510    0.9410 C   0  0  0  0  0  0  0  0  0  0  0  0
  -16.6930  -19.3970    0.7570 O   0  0  0  0  0  0  0  0  0  0  0  0
  -14.8320  -20.5150   -0.2720 C   0  0  1  0  0  0  0  0  0  0  0  0
  -13.3570  -20.4680   -0.2290 N   0  0  0  0  0  0  0  0  0  0  0  0
  -12.6670  -19.3320   -0.2570 C   0  0  0  0  0  0  0  0  0  0  0  0
  -13.2240  -18.2410   -0.2480 O   0  0  0  0  0  0  0  0  0  0  0  0
  -11.1510  -19.4490   -0.2390 C   0  0  0  0  0  0  0  0  0  0  0  0
  -10.4520  -18.0940   -0.3310 C   0  0  0  0  0  0  0  0  0  0  0  0
   -9.0600  -18.3220   -0.1950 O   0  0  0  0  0  0  0  0  0  0  0  0
   -8.2940  -17.1340   -0.3510 C   0  0  0  0  0  0  0  0  0  0  0  0
   -6.8220  -17.4500   -0.0990 C   0  0  0  0  0  0  0  0  0  0  0  0
   -6.1170  -16.2090   -0.3440 O   0  0  0  0  0  0  0  0  0  0  0  0
   -4.7470  -16.0640   -0.2550 C   0  0  0  0  0  0  0  0  0  0  0  0
   -3.9340  -17.0380    0.3340 C   0  0  0  0  0  0  0  0  0  0  0  0
   -2.5580  -16.8380    0.3940 C   0  0  0  0  0  0  0  0  0  0  0  0
   -2.0070  -15.6720   -0.1420 C   0  0  0  0  0  0  0  0  0  0  0  0
   -0.6110  -15.4940   -0.0520 N   0  0  0  0  0  0  0  0  0  0  0  0
    0.2370  -15.0700   -1.0380 C   0  0  0  0  0  0  0  0  0  0  0  0
   -0.2210  -14.8280   -2.2670 N   0  0  0  0  0  0  0  0  0  0  0  0
    0.6460  -14.4400   -3.1880 C   0  0  0  0  0  0  0  0  0  0  0  0
    1.9870  -14.2930   -2.8810 C   0  0  0  0  0  0  0  0  0  0  0  0
    2.9770  -13.8280   -3.9190 C   0  0  0  0  0  0  0  0  0  0  0  0
    4.0740  -14.6110   -3.9150 F   0  0  0  0  0  0  0  0  0  0  0  0
    3.3390  -12.5640   -3.6640 F   0  0  0  0  0  0  0  0  0  0  0  0
    2.4310  -13.8770   -5.1480 F   0  0  0  0  0  0  0  0  0  0  0  0
    2.3720  -14.5610   -1.5670 C   0  0  0  0  0  0  0  0  0  0  0  0
    3.6710  -14.4230   -1.1290 N   0  0  0  0  0  0  0  0  0  0  0  0
    4.0990  -14.9490    0.1640 C   0  0  0  0  0  0  0  0  0  0  0  0
    5.5420  -14.5070    0.2660 C   0  0  0  0  0  0  0  0  0  0  0  0
    6.5790  -15.3970   -0.0170 C   0  0  0  0  0  0  0  0  0  0  0  0
    7.9040  -14.9830    0.0840 C   0  0  0  0  0  0  0  0  0  0  0  0
    8.2040  -13.6800    0.4620 C   0  0  0  0  0  0  0  0  0  0  0  0
    7.1730  -12.7770    0.7420 C   0  0  0  0  0  0  0  0  0  0  0  0
    7.4920  -11.4370    1.0960 N   0  0  0  0  0  0  0  0  0  0  0  0
    6.4390  -10.4070    1.0370 C   0  0  0  0  0  0  0  0  0  0  0  0
    8.5640  -11.2040    2.3770 S   0  0  0  0  0  0  0  0  0  0  0  0
   10.0830  -10.7490    1.5870 C   0  0  0  0  0  0  0  0  0  0  0  0
    8.1310  -10.0960    3.1540 O   0  0  0  0  0  0  0  0  0  0  0  0
    8.7730  -12.4230    3.0710 O   0  0  0  0  0  0  0  0  0  0  0  0
    5.8400  -13.1980    0.6410 C   0  0  0  0  0  0  0  0  0  0  0  0
    1.4980  -14.9540   -0.6560 N   0  0  0  0  0  0  0  0  0  0  0  0
   -2.8220  -14.6970   -0.7240 C   0  0  0  0  0  0  0  0  0  0  0  0
   -4.1970  -14.8960   -0.7780 C   0  0  0  0  0  0  0  0  0  0  0  0
  -15.3050  -21.9770   -0.5810 C   0  0  0  0  0  0  0  0  0  0  0  0
  -14.6560  -22.5010   -1.8820 C   0  0  0  0  0  0  0  0  0  0  0  0
  -16.8290  -22.0380   -0.8180 C   0  0  0  0  0  0  0  0  0  0  0  0
  -14.9720  -22.9750    0.5450 C   0  0  0  0  0  0  0  0  0  0  0  0
  -17.4230  -15.1520    0.7770 C   0  0  0  0  0  0  0  0  0  0  0  0
  -18.5320  -15.2760   -0.0520 C   0  0  0  0  0  0  0  0  0  0  0  0
  -20.5660  -14.6970   -2.6150 S   0  0  0  0  0  0  0  0  0  0  0  0
  -21.5540  -15.7710   -3.5250 C   0  0  0  0  0  0  0  0  0  0  0  0
  -21.1940  -17.0220   -3.4910 N   0  0  0  0  0  0  0  0  0  0  0  0
  -18.9880  -18.5910   -1.5530 H   0  0  0  0  0  0  0  0  0  0  0  0
  -18.7980  -18.7430   -3.3340 H   0  0  0  0  0  0  0  0  0  0  0  0
  -20.3100  -19.2810   -2.5390 H   0  0  0  0  0  0  0  0  0  0  0  0
  -17.0480  -16.7370   -2.6960 H   0  0  0  0  0  0  0  0  0  0  0  0
  -15.1000  -16.5220   -1.2400 H   0  0  0  0  0  0  0  0  0  0  0  0
  -15.1740  -14.7860    2.0690 H   0  0  0  0  0  0  0  0  0  0  0  0
  -14.0940  -15.2520    0.7010 H   0  0  0  0  0  0  0  0  0  0  0  0
  -14.4920  -17.5520    1.1790 H   0  0  0  0  0  0  0  0  0  0  0  0
  -16.6500  -19.0580    3.2620 H   0  0  0  0  0  0  0  0  0  0  0  0
  -15.5900  -19.2610    5.3040 H   0  0  0  0  0  0  0  0  0  0  0  0
  -14.1540  -18.3770    4.7310 H   0  0  0  0  0  0  0  0  0  0  0  0
  -13.2250  -20.5380    4.7970 H   0  0  0  0  0  0  0  0  0  0  0  0
  -15.7700  -21.4520    3.8920 H   0  0  0  0  0  0  0  0  0  0  0  0
  -13.6690  -21.3250    2.2880 H   0  0  0  0  0  0  0  0  0  0  0  0
  -12.9260  -19.7260    2.5750 H   0  0  0  0  0  0  0  0  0  0  0  0
  -15.1330  -19.9120   -1.1290 H   0  0  0  0  0  0  0  0  0  0  0  0
  -12.8660  -21.3440   -0.2540 H   0  0  0  0  0  0  0  0  0  0  0  0
  -10.8510  -19.9390    0.6860 H   0  0  0  0  0  0  0  0  0  0  0  0
  -10.8340  -20.0650   -1.0790 H   0  0  0  0  0  0  0  0  0  0  0  0
  -10.8070  -17.4430    0.4720 H   0  0  0  0  0  0  0  0  0  0  0  0
  -10.6780  -17.6350   -1.2960 H   0  0  0  0  0  0  0  0  0  0  0  0
   -8.4030  -16.7470   -1.3660 H   0  0  0  0  0  0  0  0  0  0  0  0
   -8.6160  -16.3740    0.3620 H   0  0  0  0  0  0  0  0  0  0  0  0
   -6.4840  -18.2220   -0.7920 H   0  0  0  0  0  0  0  0  0  0  0  0
   -6.6870  -17.7720    0.9330 H   0  0  0  0  0  0  0  0  0  0  0  0
   -4.3550  -17.9220    0.7350 H   0  0  0  0  0  0  0  0  0  0  0  0
   -1.9300  -17.5680    0.8340 H   0  0  0  0  0  0  0  0  0  0  0  0
   -0.1170  -15.8200    0.7820 H   0  0  0  0  0  0  0  0  0  0  0  0
    0.2730  -14.2450   -4.1640 H   0  0  0  0  0  0  0  0  0  0  0  0
    4.4230  -14.4110   -1.8360 H   0  0  0  0  0  0  0  0  0  0  0  0
    3.5260  -14.4930    0.9640 H   0  0  0  0  0  0  0  0  0  0  0  0
    4.0400  -16.0300    0.1650 H   0  0  0  0  0  0  0  0  0  0  0  0
    6.3630  -16.3940   -0.3070 H   0  0  0  0  0  0  0  0  0  0  0  0
    8.6880  -15.6660   -0.1260 H   0  0  0  0  0  0  0  0  0  0  0  0
    9.2130  -13.3760    0.5330 H   0  0  0  0  0  0  0  0  0  0  0  0
    5.8850  -10.5440    0.1170 H   0  0  0  0  0  0  0  0  0  0  0  0
    6.9160   -9.4350    1.0330 H   0  0  0  0  0  0  0  0  0  0  0  0
    5.8030  -10.5270    1.9050 H   0  0  0  0  0  0  0  0  0  0  0  0
    9.9820   -9.8830    0.9520 H   0  0  0  0  0  0  0  0  0  0  0  0
   10.5040  -11.5340    0.9780 H   0  0  0  0  0  0  0  0  0  0  0  0
   10.8520  -10.4870    2.2970 H   0  0  0  0  0  0  0  0  0  0  0  0
    5.0460  -12.5330    0.8540 H   0  0  0  0  0  0  0  0  0  0  0  0
   -2.3930  -13.8120   -1.1180 H   0  0  0  0  0  0  0  0  0  0  0  0
   -4.8290  -14.1690   -1.2170 H   0  0  0  0  0  0  0  0  0  0  0  0
  -15.0530  -23.4850   -2.1370 H   0  0  0  0  0  0  0  0  0  0  0  0
  -13.5760  -22.5960   -1.7720 H   0  0  0  0  0  0  0  0  0  0  0  0
  -14.8660  -21.8180   -2.7060 H   0  0  0  0  0  0  0  0  0  0  0  0
  -17.1310  -23.0370   -1.1340 H   0  0  0  0  0  0  0  0  0  0  0  0
  -17.1200  -21.3230   -1.5890 H   0  0  0  0  0  0  0  0  0  0  0  0
  -17.3720  -21.8000    0.0980 H   0  0  0  0  0  0  0  0  0  0  0  0
  -15.3310  -23.9710    0.2830 H   0  0  0  0  0  0  0  0  0  0  0  0
  -15.4560  -22.6730    1.4740 H   0  0  0  0  0  0  0  0  0  0  0  0
  -13.8950  -23.0330    0.7050 H   0  0  0  0  0  0  0  0  0  0  0  0
  -17.5340  -14.7310    1.7450 H   0  0  0  0  0  0  0  0  0  0  0  0
  -19.4780  -14.9390    0.2830 H   0  0  0  0  0  0  0  0  0  0  0  0
  -22.3890  -15.3970   -4.0600 H   0  0  0  0  0  0  0  0  0  0  0  0
  1  2  1  0  0  0  0
  1 70  1  0  0  0  0
  1 71  1  0  0  0  0
  1 72  1  0  0  0  0
  2  3  2  0  0  0  0
  2 69  1  0  0  0  0
  3  4  1  0  0  0  0
  3 67  1  0  0  0  0
  4  5  1  0  0  0  0
  4 66  2  0  0  0  0
  5  6  2  0  0  0  0
  5 73  1  0  0  0  0
  6  7  1  0  0  0  0
  6 74  1  0  0  0  0
  7  8  1  0  0  0  0
  7 65  2  0  0  0  0
  8  9  1  0  0  0  0
  8 75  1  0  0  0  0
  8 76  1  0  0  0  0
  9 10  1  0  0  0  0
  9 77  1  0  0  0  0
 10 11  2  0  0  0  0
 10 12  1  0  0  0  0
 12 13  1  0  0  0  0
 12 17  1  0  0  0  0
 12 78  1  0  0  0  0
 13 14  1  0  0  0  0
 13 79  1  0  0  0  0
 13 80  1  0  0  0  0
 14 15  1  0  0  0  0
 14 16  1  0  0  0  0
 14 81  1  0  0  0  0
 15 82  1  0  0  0  0
 16 17  1  0  0  0  0
 16 83  1  0  0  0  0
 16 84  1  0  0  0  0
 17 18  1  0  0  0  0
 18 19  2  0  0  0  0
 18 20  1  0  0  0  0
 20 21  1  0  0  0  0
 20 61  1  0  0  0  0
 20 85  1  0  0  0  0
 21 22  1  0  0  0  0
 21 86  1  0  0  0  0
 22 23  2  0  0  0  0
 22 24  1  0  0  0  0
 24 25  1  0  0  0  0
 24 87  1  0  0  0  0
 24 88  1  0  0  0  0
 25 26  1  0  0  0  0
 25 89  1  0  0  0  0
 25 90  1  0  0  0  0
 26 27  1  0  0  0  0
 27 28  1  0  0  0  0
 27 91  1  0  0  0  0
 27 92  1  0  0  0  0
 28 29  1  0  0  0  0
 28 93  1  0  0  0  0
 28 94  1  0  0  0  0
 29 30  1  0  0  0  0
 30 31  1  0  0  0  0
 30 60  2  0  0  0  0
 31 32  2  0  0  0  0
 31 95  1  0  0  0  0
 32 33  1  0  0  0  0
 32 96  1  0  0  0  0
 33 34  1  0  0  0  0
 33 59  2  0  0  0  0
 34 35  1  0  0  0  0
 34 97  1  0  0  0  0
 35 36  1  0  0  0  0
 35 58  2  0  0  0  0
 36 37  2  0  0  0  0
 37 38  1  0  0  0  0
 37 98  1  0  0  0  0
 38 39  1  0  0  0  0
 38 43  2  0  0  0  0
 39 40  1  0  0  0  0
 39 41  1  0  0  0  0
 39 42  1  0  0  0  0
 43 44  1  0  0  0  0
 43 58  1  0  0  0  0
 44 45  1  0  0  0  0
 44 99  1  0  0  0  0
 45 46  1  0  0  0  0
 45100  1  0  0  0  0
 45101  1  0  0  0  0
 46 47  1  0  0  0  0
 46 57  2  0  0  0  0
 47 48  2  0  0  0  0
 47102  1  0  0  0  0
 48 49  1  0  0  0  0
 48103  1  0  0  0  0
 49 50  2  0  0  0  0
 49104  1  0  0  0  0
 50 51  1  0  0  0  0
 50 57  1  0  0  0  0
 51 52  1  0  0  0  0
 51 53  1  0  0  0  0
 52105  1  0  0  0  0
 52106  1  0  0  0  0
 52107  1  0  0  0  0
 53 54  1  0  0  0  0
 53 55  2  0  0  0  0
 53 56  2  0  0  0  0
 54108  1  0  0  0  0
 54109  1  0  0  0  0
 54110  1  0  0  0  0
 57111  1  0  0  0  0
 59 60  1  0  0  0  0
 59112  1  0  0  0  0
 60113  1  0  0  0  0
 61 62  1  0  0  0  0
 61 63  1  0  0  0  0
 61 64  1  0  0  0  0
 62114  1  0  0  0  0
 62115  1  0  0  0  0
 62116  1  0  0  0  0
 63117  1  0  0  0  0
 63118  1  0  0  0  0
 63119  1  0  0  0  0
 64120  1  0  0  0  0
 64121  1  0  0  0  0
 64122  1  0  0  0  0
 65 66  1  0  0  0  0
 65123  1  0  0  0  0
 66124  1  0  0  0  0
 67 68  1  0  0  0  0
 68 69  2  0  0  0  0
 68125  1  0  0  0  0
M  END
>  <Compound ID>
267

>  <Uniprot>
Q05397

>  <Target>
FAK

>  <E3 ligase>
VHL

>  <Article DOI>
10.3389/fonc.2022.851065

>  <Molecular Weight>
996.14801

>  <Exact Mass>
995.36456

>  <XLogP3>
5.7600002

>  <Heavy Atom Count>
69

>  <Ring Count>
6

>  <Hydrogen Bond Acceptor Count>
14

>  <Hydrogen Bond Donor Count>
5

>  <Rotatable Bond Count>
20

>  <Topological Polar Surface Area>
217.31

>  <Molecular Formula>
C47H56F3N9O8S2

>  <InChI>
InChI=1S/C47H56F3N9O8S2/c1-29-40(68-28-54-29)32-12-10-30(11-13-32)24-52-43(62)38-23-35(60)27-59(38)44(63)41(46(2,3)4)56-39(61)18-19-66-20-21-67-36-16-14-33(15-17-36)55-45-53-26-37(47(48,49)50)42(57-45)51-25-31-8-7-9-34(22-31)58(5)69(6,64)65/h7-17,22,26,28,35,38,41,60H,18-21,23-25,27H2,1-6H3,(H,52,62)(H,56,61)(H2,51,53,55,57)/t35-,38+,41-/m1/s1

>  <InChI Key>
MVULIYLBRNHLEE-LFHXYJAASA-N

$$$$
268
  MOE2022           3D

128133  0  0  1  0  0  0  0  0999 V2000
  -20.0520  -18.6710    2.5580 C   0  0  0  0  0  0  0  0  0  0  0  0
  -20.2500  -17.2350    2.1340 C   0  0  0  0  0  0  0  0  0  0  0  0
  -19.4180  -16.5380    1.2940 C   0  0  0  0  0  0  0  0  0  0  0  0
  -18.1850  -16.9690    0.6450 C   0  0  0  0  0  0  0  0  0  0  0  0
  -17.9840  -16.7410   -0.7210 C   0  0  0  0  0  0  0  0  0  0  0  0
  -16.8130  -17.1520   -1.3470 C   0  0  0  0  0  0  0  0  0  0  0  0
  -15.8160  -17.8040   -0.6230 C   0  0  0  0  0  0  0  0  0  0  0  0
  -14.5440  -18.2520   -1.3170 C   0  0  0  0  0  0  0  0  0  0  0  0
  -13.6360  -17.1250   -1.1860 N   0  0  0  0  0  0  0  0  0  0  0  0
  -13.5140  -16.1530   -2.0900 C   0  0  0  0  0  0  0  0  0  0  0  0
  -14.1290  -16.2000   -3.1550 O   0  0  0  0  0  0  0  0  0  0  0  0
  -12.5130  -14.9900   -1.8040 C   0  0  2  0  0  0  0  0  0  0  0  0
  -11.9770  -14.3320   -3.0900 C   0  0  0  0  0  0  0  0  0  0  0  0
  -10.5150  -14.0170   -2.8020 C   0  0  1  0  0  0  0  0  0  0  0  0
  -10.4050  -12.7550   -2.1760 O   0  0  0  0  0  0  0  0  0  0  0  0
  -10.1320  -15.1330   -1.8350 C   0  0  0  0  0  0  0  0  0  0  0  0
  -11.3150  -15.3420   -1.0090 N   0  0  0  0  0  0  0  0  0  0  0  0
  -11.3630  -15.6080    0.3180 C   0  0  0  0  0  0  0  0  0  0  0  0
  -12.4520  -15.5560    0.8850 O   0  0  0  0  0  0  0  0  0  0  0  0
  -10.1290  -16.1070    1.1460 C   0  0  1  0  0  0  0  0  0  0  0  0
   -9.0990  -16.8260    0.3750 N   0  0  0  0  0  0  0  0  0  0  0  0
   -9.3130  -18.0290   -0.1510 C   0  0  0  0  0  0  0  0  0  0  0  0
  -10.3720  -18.6220   -0.0050 O   0  0  0  0  0  0  0  0  0  0  0  0
   -8.1750  -18.6550   -0.9310 C   0  0  0  0  0  0  0  0  0  0  0  0
   -7.1880  -19.3540   -0.0010 C   0  0  0  0  0  0  0  0  0  0  0  0
   -6.0230  -19.6170   -0.7600 O   0  0  0  0  0  0  0  0  0  0  0  0
   -5.0080  -20.2800   -0.0300 C   0  0  0  0  0  0  0  0  0  0  0  0
   -3.8050  -20.4220   -0.9610 C   0  0  0  0  0  0  0  0  0  0  0  0
   -2.6150  -21.0660   -0.2500 C   0  0  0  0  0  0  0  0  0  0  0  0
   -1.5630  -21.0740   -1.2350 O   0  0  0  0  0  0  0  0  0  0  0  0
   -0.2450  -21.3900   -0.9820 C   0  0  0  0  0  0  0  0  0  0  0  0
    0.6740  -21.1320   -1.9970 C   0  0  0  0  0  0  0  0  0  0  0  0
    2.0200  -21.4160   -1.7970 C   0  0  0  0  0  0  0  0  0  0  0  0
    2.4360  -21.9550   -0.5760 C   0  0  0  0  0  0  0  0  0  0  0  0
    3.7910  -22.2670   -0.3390 N   0  0  0  0  0  0  0  0  0  0  0  0
    4.8880  -21.4960   -0.6150 C   0  0  0  0  0  0  0  0  0  0  0  0
    4.7540  -20.3010   -1.1920 N   0  0  0  0  0  0  0  0  0  0  0  0
    5.8490  -19.5940   -1.4200 C   0  0  0  0  0  0  0  0  0  0  0  0
    7.0930  -20.0810   -1.0640 C   0  0  0  0  0  0  0  0  0  0  0  0
    8.3480  -19.2940   -1.3450 C   0  0  0  0  0  0  0  0  0  0  0  0
    8.0440  -18.0330   -1.7050 F   0  0  0  0  0  0  0  0  0  0  0  0
    9.0290  -19.8700   -2.3450 F   0  0  0  0  0  0  0  0  0  0  0  0
    9.1310  -19.2410   -0.2500 F   0  0  0  0  0  0  0  0  0  0  0  0
    7.1350  -21.3400   -0.4640 C   0  0  0  0  0  0  0  0  0  0  0  0
    8.3140  -21.9390   -0.0770 N   0  0  0  0  0  0  0  0  0  0  0  0
    8.3140  -23.1020    0.8060 C   0  0  0  0  0  0  0  0  0  0  0  0
    9.7860  -23.3840    1.0140 C   0  0  0  0  0  0  0  0  0  0  0  0
   10.4340  -22.9540    2.1730 C   0  0  0  0  0  0  0  0  0  0  0  0
   11.7880  -23.2210    2.3580 C   0  0  0  0  0  0  0  0  0  0  0  0
   12.5050  -23.9120    1.3890 C   0  0  0  0  0  0  0  0  0  0  0  0
   11.8660  -24.3430    0.2210 C   0  0  0  0  0  0  0  0  0  0  0  0
   12.6210  -25.0200   -0.7730 N   0  0  0  0  0  0  0  0  0  0  0  0
   12.0740  -25.1150   -2.1390 C   0  0  0  0  0  0  0  0  0  0  0  0
   13.4250  -26.4230   -0.2930 S   0  0  0  0  0  0  0  0  0  0  0  0
   15.1220  -25.9260   -0.1660 C   0  0  0  0  0  0  0  0  0  0  0  0
   12.9840  -26.8240    0.9930 O   0  0  0  0  0  0  0  0  0  0  0  0
   13.3350  -27.3920   -1.3280 O   0  0  0  0  0  0  0  0  0  0  0  0
   10.5030  -24.0740    0.0380 C   0  0  0  0  0  0  0  0  0  0  0  0
    6.0350  -22.0390   -0.2420 N   0  0  0  0  0  0  0  0  0  0  0  0
    1.5130  -22.2270    0.4370 C   0  0  0  0  0  0  0  0  0  0  0  0
    0.1660  -21.9420    0.2350 C   0  0  0  0  0  0  0  0  0  0  0  0
   -9.4590  -15.0010    2.0300 C   0  0  0  0  0  0  0  0  0  0  0  0
   -8.3810  -15.6180    2.9500 C   0  0  0  0  0  0  0  0  0  0  0  0
   -8.7880  -13.8770    1.2150 C   0  0  0  0  0  0  0  0  0  0  0  0
  -10.4880  -14.3370    2.9670 C   0  0  0  0  0  0  0  0  0  0  0  0
  -16.0000  -18.0220    0.7410 C   0  0  0  0  0  0  0  0  0  0  0  0
  -17.1700  -17.6070    1.3680 C   0  0  0  0  0  0  0  0  0  0  0  0
  -20.0320  -14.9530    1.0610 S   0  0  0  0  0  0  0  0  0  0  0  0
  -21.3350  -15.3340    2.1150 C   0  0  0  0  0  0  0  0  0  0  0  0
  -21.3230  -16.5440    2.5970 N   0  0  0  0  0  0  0  0  0  0  0  0
  -19.5570  -19.2130    1.7520 H   0  0  0  0  0  0  0  0  0  0  0  0
  -21.0330  -19.1040    2.7540 H   0  0  0  0  0  0  0  0  0  0  0  0
  -19.4480  -18.6730    3.4640 H   0  0  0  0  0  0  0  0  0  0  0  0
  -18.7340  -16.2490   -1.2850 H   0  0  0  0  0  0  0  0  0  0  0  0
  -16.6740  -16.9630   -2.3820 H   0  0  0  0  0  0  0  0  0  0  0  0
  -14.7520  -18.4600   -2.3590 H   0  0  0  0  0  0  0  0  0  0  0  0
  -14.1310  -19.1090   -0.8000 H   0  0  0  0  0  0  0  0  0  0  0  0
  -13.1850  -16.9640   -0.2930 H   0  0  0  0  0  0  0  0  0  0  0  0
  -13.0700  -14.2360   -1.2460 H   0  0  0  0  0  0  0  0  0  0  0  0
  -12.5450  -13.4370   -3.3450 H   0  0  0  0  0  0  0  0  0  0  0  0
  -12.0180  -15.0410   -3.9180 H   0  0  0  0  0  0  0  0  0  0  0  0
   -9.9090  -14.0470   -3.7100 H   0  0  0  0  0  0  0  0  0  0  0  0
  -10.9410  -12.7720   -1.3770 H   0  0  0  0  0  0  0  0  0  0  0  0
   -9.2600  -14.8260   -1.2620 H   0  0  0  0  0  0  0  0  0  0  0  0
   -9.9070  -16.0440   -2.3940 H   0  0  0  0  0  0  0  0  0  0  0  0
  -10.5510  -16.8310    1.8450 H   0  0  0  0  0  0  0  0  0  0  0  0
   -8.2010  -16.3900    0.2710 H   0  0  0  0  0  0  0  0  0  0  0  0
   -8.5820  -19.3820   -1.6320 H   0  0  0  0  0  0  0  0  0  0  0  0
   -7.6560  -17.8800   -1.4930 H   0  0  0  0  0  0  0  0  0  0  0  0
   -7.6310  -20.2790    0.3730 H   0  0  0  0  0  0  0  0  0  0  0  0
   -6.9440  -18.6990    0.8380 H   0  0  0  0  0  0  0  0  0  0  0  0
   -4.7250  -19.6900    0.8440 H   0  0  0  0  0  0  0  0  0  0  0  0
   -5.3510  -21.2680    0.2840 H   0  0  0  0  0  0  0  0  0  0  0  0
   -3.5140  -19.4330   -1.3170 H   0  0  0  0  0  0  0  0  0  0  0  0
   -4.0860  -21.0320   -1.8200 H   0  0  0  0  0  0  0  0  0  0  0  0
   -2.8550  -22.0860    0.0540 H   0  0  0  0  0  0  0  0  0  0  0  0
   -2.3180  -20.4640    0.6100 H   0  0  0  0  0  0  0  0  0  0  0  0
    0.3400  -20.7190   -2.9130 H   0  0  0  0  0  0  0  0  0  0  0  0
    2.7250  -21.2280   -2.5640 H   0  0  0  0  0  0  0  0  0  0  0  0
    4.0180  -23.0770    0.2420 H   0  0  0  0  0  0  0  0  0  0  0  0
    5.7330  -18.6460   -1.8870 H   0  0  0  0  0  0  0  0  0  0  0  0
    9.1430  -21.3370    0.0490 H   0  0  0  0  0  0  0  0  0  0  0  0
    7.8490  -22.8530    1.7520 H   0  0  0  0  0  0  0  0  0  0  0  0
    7.8470  -23.9460    0.3140 H   0  0  0  0  0  0  0  0  0  0  0  0
    9.8980  -22.4250    2.9190 H   0  0  0  0  0  0  0  0  0  0  0  0
   12.2730  -22.8960    3.2430 H   0  0  0  0  0  0  0  0  0  0  0  0
   13.5320  -24.1060    1.5370 H   0  0  0  0  0  0  0  0  0  0  0  0
   11.6790  -24.1440   -2.4100 H   0  0  0  0  0  0  0  0  0  0  0  0
   11.3010  -25.8730   -2.1410 H   0  0  0  0  0  0  0  0  0  0  0  0
   12.8820  -25.3810   -2.8090 H   0  0  0  0  0  0  0  0  0  0  0  0
   15.3010  -25.2010    0.6110 H   0  0  0  0  0  0  0  0  0  0  0  0
   15.5040  -25.5030   -1.0820 H   0  0  0  0  0  0  0  0  0  0  0  0
   15.7760  -26.7560    0.0520 H   0  0  0  0  0  0  0  0  0  0  0  0
   10.0020  -24.3970   -0.8350 H   0  0  0  0  0  0  0  0  0  0  0  0
    1.8400  -22.6410    1.3540 H   0  0  0  0  0  0  0  0  0  0  0  0
   -0.5360  -22.1440    0.9990 H   0  0  0  0  0  0  0  0  0  0  0  0
   -7.9730  -14.8620    3.6220 H   0  0  0  0  0  0  0  0  0  0  0  0
   -7.5570  -16.0290    2.3670 H   0  0  0  0  0  0  0  0  0  0  0  0
   -8.8170  -16.4170    3.5520 H   0  0  0  0  0  0  0  0  0  0  0  0
   -8.3520  -13.1350    1.8870 H   0  0  0  0  0  0  0  0  0  0  0  0
   -9.5230  -13.3740    0.5870 H   0  0  0  0  0  0  0  0  0  0  0  0
   -7.9910  -14.2750    0.5880 H   0  0  0  0  0  0  0  0  0  0  0  0
   -9.9980  -13.6410    3.6480 H   0  0  0  0  0  0  0  0  0  0  0  0
  -11.0060  -15.0960    3.5560 H   0  0  0  0  0  0  0  0  0  0  0  0
  -11.2290  -13.7790    2.3930 H   0  0  0  0  0  0  0  0  0  0  0  0
  -15.2410  -18.4980    1.3080 H   0  0  0  0  0  0  0  0  0  0  0  0
  -17.2910  -17.7670    2.4080 H   0  0  0  0  0  0  0  0  0  0  0  0
  -22.0730  -14.6050    2.3300 H   0  0  0  0  0  0  0  0  0  0  0  0
  1  2  1  0  0  0  0
  1 71  1  0  0  0  0
  1 72  1  0  0  0  0
  1 73  1  0  0  0  0
  2  3  2  0  0  0  0
  2 70  1  0  0  0  0
  3  4  1  0  0  0  0
  3 68  1  0  0  0  0
  4  5  1  0  0  0  0
  4 67  2  0  0  0  0
  5  6  2  0  0  0  0
  5 74  1  0  0  0  0
  6  7  1  0  0  0  0
  6 75  1  0  0  0  0
  7  8  1  0  0  0  0
  7 66  2  0  0  0  0
  8  9  1  0  0  0  0
  8 76  1  0  0  0  0
  8 77  1  0  0  0  0
  9 10  1  0  0  0  0
  9 78  1  0  0  0  0
 10 11  2  0  0  0  0
 10 12  1  0  0  0  0
 12 13  1  0  0  0  0
 12 17  1  0  0  0  0
 12 79  1  0  0  0  0
 13 14  1  0  0  0  0
 13 80  1  0  0  0  0
 13 81  1  0  0  0  0
 14 15  1  0  0  0  0
 14 16  1  0  0  0  0
 14 82  1  0  0  0  0
 15 83  1  0  0  0  0
 16 17  1  0  0  0  0
 16 84  1  0  0  0  0
 16 85  1  0  0  0  0
 17 18  1  0  0  0  0
 18 19  2  0  0  0  0
 18 20  1  0  0  0  0
 20 21  1  0  0  0  0
 20 62  1  0  0  0  0
 20 86  1  0  0  0  0
 21 22  1  0  0  0  0
 21 87  1  0  0  0  0
 22 23  2  0  0  0  0
 22 24  1  0  0  0  0
 24 25  1  0  0  0  0
 24 88  1  0  0  0  0
 24 89  1  0  0  0  0
 25 26  1  0  0  0  0
 25 90  1  0  0  0  0
 25 91  1  0  0  0  0
 26 27  1  0  0  0  0
 27 28  1  0  0  0  0
 27 92  1  0  0  0  0
 27 93  1  0  0  0  0
 28 29  1  0  0  0  0
 28 94  1  0  0  0  0
 28 95  1  0  0  0  0
 29 30  1  0  0  0  0
 29 96  1  0  0  0  0
 29 97  1  0  0  0  0
 30 31  1  0  0  0  0
 31 32  1  0  0  0  0
 31 61  2  0  0  0  0
 32 33  2  0  0  0  0
 32 98  1  0  0  0  0
 33 34  1  0  0  0  0
 33 99  1  0  0  0  0
 34 35  1  0  0  0  0
 34 60  2  0  0  0  0
 35 36  1  0  0  0  0
 35100  1  0  0  0  0
 36 37  1  0  0  0  0
 36 59  2  0  0  0  0
 37 38  2  0  0  0  0
 38 39  1  0  0  0  0
 38101  1  0  0  0  0
 39 40  1  0  0  0  0
 39 44  2  0  0  0  0
 40 41  1  0  0  0  0
 40 42  1  0  0  0  0
 40 43  1  0  0  0  0
 44 45  1  0  0  0  0
 44 59  1  0  0  0  0
 45 46  1  0  0  0  0
 45102  1  0  0  0  0
 46 47  1  0  0  0  0
 46103  1  0  0  0  0
 46104  1  0  0  0  0
 47 48  1  0  0  0  0
 47 58  2  0  0  0  0
 48 49  2  0  0  0  0
 48105  1  0  0  0  0
 49 50  1  0  0  0  0
 49106  1  0  0  0  0
 50 51  2  0  0  0  0
 50107  1  0  0  0  0
 51 52  1  0  0  0  0
 51 58  1  0  0  0  0
 52 53  1  0  0  0  0
 52 54  1  0  0  0  0
 53108  1  0  0  0  0
 53109  1  0  0  0  0
 53110  1  0  0  0  0
 54 55  1  0  0  0  0
 54 56  2  0  0  0  0
 54 57  2  0  0  0  0
 55111  1  0  0  0  0
 55112  1  0  0  0  0
 55113  1  0  0  0  0
 58114  1  0  0  0  0
 60 61  1  0  0  0  0
 60115  1  0  0  0  0
 61116  1  0  0  0  0
 62 63  1  0  0  0  0
 62 64  1  0  0  0  0
 62 65  1  0  0  0  0
 63117  1  0  0  0  0
 63118  1  0  0  0  0
 63119  1  0  0  0  0
 64120  1  0  0  0  0
 64121  1  0  0  0  0
 64122  1  0  0  0  0
 65123  1  0  0  0  0
 65124  1  0  0  0  0
 65125  1  0  0  0  0
 66 67  1  0  0  0  0
 66126  1  0  0  0  0
 67127  1  0  0  0  0
 68 69  1  0  0  0  0
 69 70  2  0  0  0  0
 69128  1  0  0  0  0
M  END
>  <Compound ID>
268

>  <Uniprot>
Q05397

>  <Target>
FAK

>  <E3 ligase>
VHL

>  <DC50 (nM)>
4

>  <Dmax (%)>
99

>  <Assay (DC50/Dmax)>
Degradation of Fak in PC3 cells after 24 h treatment

>  <IC50 (nM, Protac to Target)>
14.5

>  <Assay (Protac to Target, IC50)>
Inhibition of Fak

>  <Article DOI>
10.1021/jacs.8b08008

>  <Molecular Weight>
1010.175

>  <Exact Mass>
1009.3802

>  <XLogP3>
6.1199999

>  <Heavy Atom Count>
70

>  <Ring Count>
6

>  <Hydrogen Bond Acceptor Count>
14

>  <Hydrogen Bond Donor Count>
5

>  <Rotatable Bond Count>
21

>  <Topological Polar Surface Area>
217.31

>  <Molecular Formula>
C48H58F3N9O8S2

>  <InChI>
InChI=1S/C48H58F3N9O8S2/c1-30-41(69-29-55-30)33-13-11-31(12-14-33)25-53-44(63)39-24-36(61)28-60(39)45(64)42(47(2,3)4)57-40(62)19-22-67-20-8-21-68-37-17-15-34(16-18-37)56-46-54-27-38(48(49,50)51)43(58-46)52-26-32-9-7-10-35(23-32)59(5)70(6,65)66/h7,9-18,23,27,29,36,39,42,61H,8,19-22,24-26,28H2,1-6H3,(H,53,63)(H,57,62)(H2,52,54,56,58)/t36-,39+,42-/m1/s1

>  <InChI Key>
WVWFJWJYLUTFRG-QLMCDVMBSA-N

$$$$
269
  MOE2022           3D

132137  0  0  1  0  0  0  0  0999 V2000
   22.8950  -18.0310   -0.6250 C   0  0  0  0  0  0  0  0  0  0  0  0
   22.9900  -19.5250   -0.4250 C   0  0  0  0  0  0  0  0  0  0  0  0
   21.9900  -20.3220    0.0730 C   0  0  0  0  0  0  0  0  0  0  0  0
   20.6430  -19.9590    0.4930 C   0  0  0  0  0  0  0  0  0  0  0  0
   19.8140  -19.1880   -0.3300 C   0  0  0  0  0  0  0  0  0  0  0  0
   18.5300  -18.8430    0.0770 C   0  0  0  0  0  0  0  0  0  0  0  0
   18.0450  -19.2630    1.3140 C   0  0  0  0  0  0  0  0  0  0  0  0
   16.6390  -18.8920    1.7390 C   0  0  0  0  0  0  0  0  0  0  0  0
   15.8050  -19.8870    1.0730 N   0  0  0  0  0  0  0  0  0  0  0  0
   15.1110  -19.6250   -0.0390 C   0  0  0  0  0  0  0  0  0  0  0  0
   15.1050  -18.5000   -0.5380 O   0  0  0  0  0  0  0  0  0  0  0  0
   14.4290  -20.8140   -0.7680 C   0  0  2  0  0  0  0  0  0  0  0  0
   15.2490  -21.2690   -1.9850 C   0  0  0  0  0  0  0  0  0  0  0  0
   14.2130  -21.6080   -3.0530 C   0  0  1  0  0  0  0  0  0  0  0  0
   13.7940  -22.9480   -2.8890 O   0  0  0  0  0  0  0  0  0  0  0  0
   13.0690  -20.6440   -2.7380 C   0  0  0  0  0  0  0  0  0  0  0  0
   13.0900  -20.5130   -1.2870 N   0  0  0  0  0  0  0  0  0  0  0  0
   12.0580  -20.2590   -0.4590 C   0  0  0  0  0  0  0  0  0  0  0  0
   12.2000  -20.4360    0.7530 O   0  0  0  0  0  0  0  0  0  0  0  0
   10.6880  -19.7610   -1.0100 C   0  0  1  0  0  0  0  0  0  0  0  0
    9.5840  -20.4010   -0.2780 N   0  0  0  0  0  0  0  0  0  0  0  0
    8.5190  -20.9520   -0.8510 C   0  0  0  0  0  0  0  0  0  0  0  0
    8.3750  -20.9710   -2.0670 O   0  0  0  0  0  0  0  0  0  0  0  0
    7.4820  -21.5650    0.0790 C   0  0  0  0  0  0  0  0  0  0  0  0
    6.2160  -21.9980   -0.6590 C   0  0  0  0  0  0  0  0  0  0  0  0
    5.3000  -22.5000    0.3010 O   0  0  0  0  0  0  0  0  0  0  0  0
    4.0570  -22.8780   -0.2780 C   0  0  0  0  0  0  0  0  0  0  0  0
    3.1330  -23.3920    0.8220 C   0  0  0  0  0  0  0  0  0  0  0  0
    1.8410  -23.6300    0.2780 O   0  0  0  0  0  0  0  0  0  0  0  0
    0.9210  -24.1030    1.2520 C   0  0  0  0  0  0  0  0  0  0  0  0
   -0.4440  -24.2950    0.5970 C   0  0  0  0  0  0  0  0  0  0  0  0
   -1.3100  -24.7820    1.6520 O   0  0  0  0  0  0  0  0  0  0  0  0
   -2.6560  -25.0430    1.4950 C   0  0  0  0  0  0  0  0  0  0  0  0
   -3.3510  -25.4900    2.6160 C   0  0  0  0  0  0  0  0  0  0  0  0
   -4.7110  -25.7660    2.5220 C   0  0  0  0  0  0  0  0  0  0  0  0
   -5.3670  -25.5880    1.3020 C   0  0  0  0  0  0  0  0  0  0  0  0
   -6.7420  -25.9000    1.2440 N   0  0  0  0  0  0  0  0  0  0  0  0
   -7.7420  -25.2270    0.5970 C   0  0  0  0  0  0  0  0  0  0  0  0
   -7.4870  -24.1050   -0.0790 N   0  0  0  0  0  0  0  0  0  0  0  0
   -8.5000  -23.4960   -0.6760 C   0  0  0  0  0  0  0  0  0  0  0  0
   -9.7830  -24.0070   -0.5920 C   0  0  0  0  0  0  0  0  0  0  0  0
  -10.9380  -23.3430   -1.3000 C   0  0  0  0  0  0  0  0  0  0  0  0
  -11.3060  -24.0780   -2.3540 F   0  0  0  0  0  0  0  0  0  0  0  0
  -11.9900  -23.1980   -0.4680 F   0  0  0  0  0  0  0  0  0  0  0  0
  -10.5810  -22.1210   -1.7360 F   0  0  0  0  0  0  0  0  0  0  0  0
   -9.9530  -25.1800    0.1420 C   0  0  0  0  0  0  0  0  0  0  0  0
  -11.1800  -25.7850    0.2940 N   0  0  0  0  0  0  0  0  0  0  0  0
  -11.3970  -26.8790    1.2310 C   0  0  0  0  0  0  0  0  0  0  0  0
  -12.9050  -26.9310    1.3700 C   0  0  0  0  0  0  0  0  0  0  0  0
  -13.5170  -26.5350    2.5620 C   0  0  0  0  0  0  0  0  0  0  0  0
  -14.9040  -26.5810    2.6920 C   0  0  0  0  0  0  0  0  0  0  0  0
  -15.6900  -27.0160    1.6330 C   0  0  0  0  0  0  0  0  0  0  0  0
  -15.0850  -27.4010    0.4380 C   0  0  0  0  0  0  0  0  0  0  0  0
  -15.9210  -27.8170   -0.6090 N   0  0  0  0  0  0  0  0  0  0  0  0
  -15.5480  -29.1010   -1.2220 C   0  0  0  0  0  0  0  0  0  0  0  0
  -16.0930  -26.6650   -1.8150 S   0  0  0  0  0  0  0  0  0  0  0  0
  -16.6870  -25.2130   -0.9900 C   0  0  0  0  0  0  0  0  0  0  0  0
  -14.8170  -26.3780   -2.3660 O   0  0  0  0  0  0  0  0  0  0  0  0
  -17.0940  -27.1020   -2.7200 O   0  0  0  0  0  0  0  0  0  0  0  0
  -13.6930  -27.3630    0.3040 C   0  0  0  0  0  0  0  0  0  0  0  0
   -8.9350  -25.7830    0.7310 N   0  0  0  0  0  0  0  0  0  0  0  0
   -4.6680  -25.1480    0.1730 C   0  0  0  0  0  0  0  0  0  0  0  0
   -3.3080  -24.8710    0.2690 C   0  0  0  0  0  0  0  0  0  0  0  0
   10.5450  -18.2020   -0.9810 C   0  0  0  0  0  0  0  0  0  0  0  0
   10.6130  -17.6190    0.4460 C   0  0  0  0  0  0  0  0  0  0  0  0
   11.6520  -17.5250   -1.8140 C   0  0  0  0  0  0  0  0  0  0  0  0
    9.2060  -17.7510   -1.6030 C   0  0  0  0  0  0  0  0  0  0  0  0
   18.8600  -20.0380    2.1380 C   0  0  0  0  0  0  0  0  0  0  0  0
   20.1440  -20.3830    1.7300 C   0  0  0  0  0  0  0  0  0  0  0  0
   22.5350  -21.9460    0.1550 S   0  0  0  0  0  0  0  0  0  0  0  0
   24.0420  -21.4430   -0.5010 C   0  0  0  0  0  0  0  0  0  0  0  0
   24.1390  -20.1690   -0.7520 N   0  0  0  0  0  0  0  0  0  0  0  0
   22.1960  -17.6160    0.1010 H   0  0  0  0  0  0  0  0  0  0  0  0
   22.5580  -17.8480   -1.6450 H   0  0  0  0  0  0  0  0  0  0  0  0
   23.8870  -17.6070   -0.4730 H   0  0  0  0  0  0  0  0  0  0  0  0
   20.1660  -18.8710   -1.2780 H   0  0  0  0  0  0  0  0  0  0  0  0
   17.9120  -18.2620   -0.5620 H   0  0  0  0  0  0  0  0  0  0  0  0
   16.4110  -17.8890    1.3990 H   0  0  0  0  0  0  0  0  0  0  0  0
   16.5410  -18.9920    2.8120 H   0  0  0  0  0  0  0  0  0  0  0  0
   15.8370  -20.8300    1.4160 H   0  0  0  0  0  0  0  0  0  0  0  0
   14.3480  -21.6490   -0.0700 H   0  0  0  0  0  0  0  0  0  0  0  0
   15.8800  -22.1260   -1.7450 H   0  0  0  0  0  0  0  0  0  0  0  0
   15.8660  -20.4440   -2.3440 H   0  0  0  0  0  0  0  0  0  0  0  0
   14.6060  -21.4520   -4.0600 H   0  0  0  0  0  0  0  0  0  0  0  0
   13.2750  -23.0050   -2.0800 H   0  0  0  0  0  0  0  0  0  0  0  0
   12.1310  -21.0590   -3.1110 H   0  0  0  0  0  0  0  0  0  0  0  0
   13.2670  -19.6770   -3.2030 H   0  0  0  0  0  0  0  0  0  0  0  0
   10.6210  -20.0630   -2.0530 H   0  0  0  0  0  0  0  0  0  0  0  0
    9.6960  -20.4550    0.7220 H   0  0  0  0  0  0  0  0  0  0  0  0
    7.9210  -22.4300    0.5720 H   0  0  0  0  0  0  0  0  0  0  0  0
    7.2120  -20.8280    0.8340 H   0  0  0  0  0  0  0  0  0  0  0  0
    6.4660  -22.7690   -1.3910 H   0  0  0  0  0  0  0  0  0  0  0  0
    5.7900  -21.1350   -1.1770 H   0  0  0  0  0  0  0  0  0  0  0  0
    3.5860  -22.0180   -0.7560 H   0  0  0  0  0  0  0  0  0  0  0  0
    4.2020  -23.6690   -1.0160 H   0  0  0  0  0  0  0  0  0  0  0  0
    3.0760  -22.6380    1.6090 H   0  0  0  0  0  0  0  0  0  0  0  0
    3.5510  -24.3120    1.2330 H   0  0  0  0  0  0  0  0  0  0  0  0
    1.2560  -25.0590    1.6570 H   0  0  0  0  0  0  0  0  0  0  0  0
    0.8210  -23.3810    2.0640 H   0  0  0  0  0  0  0  0  0  0  0  0
   -0.3700  -25.0290   -0.2050 H   0  0  0  0  0  0  0  0  0  0  0  0
   -0.8060  -23.3400    0.2150 H   0  0  0  0  0  0  0  0  0  0  0  0
   -2.8380  -25.6140    3.5340 H   0  0  0  0  0  0  0  0  0  0  0  0
   -5.2480  -26.1030    3.3700 H   0  0  0  0  0  0  0  0  0  0  0  0
   -7.1040  -26.6450    1.8450 H   0  0  0  0  0  0  0  0  0  0  0  0
   -8.2880  -22.6080   -1.2200 H   0  0  0  0  0  0  0  0  0  0  0  0
  -12.0280  -25.2300    0.0980 H   0  0  0  0  0  0  0  0  0  0  0  0
  -11.0350  -27.8060    0.8050 H   0  0  0  0  0  0  0  0  0  0  0  0
  -10.9500  -26.6480    2.1900 H   0  0  0  0  0  0  0  0  0  0  0  0
  -12.9270  -26.1980    3.3770 H   0  0  0  0  0  0  0  0  0  0  0  0
  -15.3580  -26.2850    3.6040 H   0  0  0  0  0  0  0  0  0  0  0  0
  -16.7440  -27.0630    1.7280 H   0  0  0  0  0  0  0  0  0  0  0  0
  -15.3620  -29.8060   -0.4220 H   0  0  0  0  0  0  0  0  0  0  0  0
  -14.6640  -28.9620   -1.8310 H   0  0  0  0  0  0  0  0  0  0  0  0
  -16.3840  -29.4340   -1.8250 H   0  0  0  0  0  0  0  0  0  0  0  0
  -15.9730  -24.7890   -0.3010 H   0  0  0  0  0  0  0  0  0  0  0  0
  -17.5950  -25.3880   -0.4350 H   0  0  0  0  0  0  0  0  0  0  0  0
  -16.9340  -24.4220   -1.6810 H   0  0  0  0  0  0  0  0  0  0  0  0
  -13.2390  -27.6450   -0.6110 H   0  0  0  0  0  0  0  0  0  0  0  0
   -5.1710  -25.0310   -0.7520 H   0  0  0  0  0  0  0  0  0  0  0  0
   -2.7800  -24.5360   -0.5830 H   0  0  0  0  0  0  0  0  0  0  0  0
   10.4960  -16.5350    0.4190 H   0  0  0  0  0  0  0  0  0  0  0  0
   11.5760  -17.8480    0.9060 H   0  0  0  0  0  0  0  0  0  0  0  0
    9.8200  -18.0370    1.0660 H   0  0  0  0  0  0  0  0  0  0  0  0
   11.5130  -16.4430   -1.8240 H   0  0  0  0  0  0  0  0  0  0  0  0
   11.6270  -17.8860   -2.8410 H   0  0  0  0  0  0  0  0  0  0  0  0
   12.6350  -17.7280   -1.3860 H   0  0  0  0  0  0  0  0  0  0  0  0
    9.1520  -16.6620   -1.6520 H   0  0  0  0  0  0  0  0  0  0  0  0
    8.3670  -18.1040   -1.0040 H   0  0  0  0  0  0  0  0  0  0  0  0
    9.1060  -18.1540   -2.6120 H   0  0  0  0  0  0  0  0  0  0  0  0
   18.5040  -20.3690    3.0800 H   0  0  0  0  0  0  0  0  0  0  0  0
   20.7560  -20.9710    2.3640 H   0  0  0  0  0  0  0  0  0  0  0  0
   24.8100  -22.1530   -0.6710 H   0  0  0  0  0  0  0  0  0  0  0  0
  1  2  1  0  0  0  0
  1 73  1  0  0  0  0
  1 74  1  0  0  0  0
  1 75  1  0  0  0  0
  2  3  2  0  0  0  0
  2 72  1  0  0  0  0
  3  4  1  0  0  0  0
  3 70  1  0  0  0  0
  4  5  1  0  0  0  0
  4 69  2  0  0  0  0
  5  6  2  0  0  0  0
  5 76  1  0  0  0  0
  6  7  1  0  0  0  0
  6 77  1  0  0  0  0
  7  8  1  0  0  0  0
  7 68  2  0  0  0  0
  8  9  1  0  0  0  0
  8 78  1  0  0  0  0
  8 79  1  0  0  0  0
  9 10  1  0  0  0  0
  9 80  1  0  0  0  0
 10 11  2  0  0  0  0
 10 12  1  0  0  0  0
 12 13  1  0  0  0  0
 12 17  1  0  0  0  0
 12 81  1  0  0  0  0
 13 14  1  0  0  0  0
 13 82  1  0  0  0  0
 13 83  1  0  0  0  0
 14 15  1  0  0  0  0
 14 16  1  0  0  0  0
 14 84  1  0  0  0  0
 15 85  1  0  0  0  0
 16 17  1  0  0  0  0
 16 86  1  0  0  0  0
 16 87  1  0  0  0  0
 17 18  1  0  0  0  0
 18 19  2  0  0  0  0
 18 20  1  0  0  0  0
 20 21  1  0  0  0  0
 20 64  1  0  0  0  0
 20 88  1  0  0  0  0
 21 22  1  0  0  0  0
 21 89  1  0  0  0  0
 22 23  2  0  0  0  0
 22 24  1  0  0  0  0
 24 25  1  0  0  0  0
 24 90  1  0  0  0  0
 24 91  1  0  0  0  0
 25 26  1  0  0  0  0
 25 92  1  0  0  0  0
 25 93  1  0  0  0  0
 26 27  1  0  0  0  0
 27 28  1  0  0  0  0
 27 94  1  0  0  0  0
 27 95  1  0  0  0  0
 28 29  1  0  0  0  0
 28 96  1  0  0  0  0
 28 97  1  0  0  0  0
 29 30  1  0  0  0  0
 30 31  1  0  0  0  0
 30 98  1  0  0  0  0
 30 99  1  0  0  0  0
 31 32  1  0  0  0  0
 31100  1  0  0  0  0
 31101  1  0  0  0  0
 32 33  1  0  0  0  0
 33 34  1  0  0  0  0
 33 63  2  0  0  0  0
 34 35  2  0  0  0  0
 34102  1  0  0  0  0
 35 36  1  0  0  0  0
 35103  1  0  0  0  0
 36 37  1  0  0  0  0
 36 62  2  0  0  0  0
 37 38  1  0  0  0  0
 37104  1  0  0  0  0
 38 39  1  0  0  0  0
 38 61  2  0  0  0  0
 39 40  2  0  0  0  0
 40 41  1  0  0  0  0
 40105  1  0  0  0  0
 41 42  1  0  0  0  0
 41 46  2  0  0  0  0
 42 43  1  0  0  0  0
 42 44  1  0  0  0  0
 42 45  1  0  0  0  0
 46 47  1  0  0  0  0
 46 61  1  0  0  0  0
 47 48  1  0  0  0  0
 47106  1  0  0  0  0
 48 49  1  0  0  0  0
 48107  1  0  0  0  0
 48108  1  0  0  0  0
 49 50  1  0  0  0  0
 49 60  2  0  0  0  0
 50 51  2  0  0  0  0
 50109  1  0  0  0  0
 51 52  1  0  0  0  0
 51110  1  0  0  0  0
 52 53  2  0  0  0  0
 52111  1  0  0  0  0
 53 54  1  0  0  0  0
 53 60  1  0  0  0  0
 54 55  1  0  0  0  0
 54 56  1  0  0  0  0
 55112  1  0  0  0  0
 55113  1  0  0  0  0
 55114  1  0  0  0  0
 56 57  1  0  0  0  0
 56 58  2  0  0  0  0
 56 59  2  0  0  0  0
 57115  1  0  0  0  0
 57116  1  0  0  0  0
 57117  1  0  0  0  0
 60118  1  0  0  0  0
 62 63  1  0  0  0  0
 62119  1  0  0  0  0
 63120  1  0  0  0  0
 64 65  1  0  0  0  0
 64 66  1  0  0  0  0
 64 67  1  0  0  0  0
 65121  1  0  0  0  0
 65122  1  0  0  0  0
 65123  1  0  0  0  0
 66124  1  0  0  0  0
 66125  1  0  0  0  0
 66126  1  0  0  0  0
 67127  1  0  0  0  0
 67128  1  0  0  0  0
 67129  1  0  0  0  0
 68 69  1  0  0  0  0
 68130  1  0  0  0  0
 69131  1  0  0  0  0
 70 71  1  0  0  0  0
 71 72  2  0  0  0  0
 71132  1  0  0  0  0
M  END
>  <Compound ID>
269

>  <Uniprot>
Q05397

>  <Target>
FAK

>  <E3 ligase>
VHL

>  <DC50 (nM)>
20.8

>  <Dmax (%)>
99

>  <Assay (DC50/Dmax)>
Degradation of Fak in PC3 cells after 24 h treatment

>  <IC50 (nM, Protac to Target)>
12.7

>  <Assay (Protac to Target, IC50)>
Inhibition of Fak

>  <Article DOI>
10.1021/jacs.8b08008

>  <Molecular Weight>
1040.201

>  <Exact Mass>
1039.3907

>  <XLogP3>
5.6199999

>  <Heavy Atom Count>
72

>  <Ring Count>
6

>  <Hydrogen Bond Acceptor Count>
15

>  <Hydrogen Bond Donor Count>
5

>  <Rotatable Bond Count>
23

>  <Topological Polar Surface Area>
226.53999

>  <Molecular Formula>
C49H60F3N9O9S2

>  <InChI>
InChI=1S/C49H60F3N9O9S2/c1-31-42(71-30-56-31)34-12-10-32(11-13-34)26-54-45(64)40-25-37(62)29-61(40)46(65)43(48(2,3)4)58-41(63)18-19-68-20-21-69-22-23-70-38-16-14-35(15-17-38)57-47-55-28-39(49(50,51)52)44(59-47)53-27-33-8-7-9-36(24-33)60(5)72(6,66)67/h7-17,24,28,30,37,40,43,62H,18-23,25-27,29H2,1-6H3,(H,54,64)(H,58,63)(H2,53,55,57,59)/t37-,40+,43-/m1/s1

>  <InChI Key>
DRJLXMYTVYIROA-AKCINUCUSA-N

$$$$
270
  MOE2022           3D

146151  0  0  1  0  0  0  0  0999 V2000
   24.7850  -28.8150   -0.9300 C   0  0  0  0  0  0  0  0  0  0  0  0
   24.7960  -27.3460   -0.5740 C   0  0  0  0  0  0  0  0  0  0  0  0
   23.6940  -26.5290   -0.5690 C   0  0  0  0  0  0  0  0  0  0  0  0
   22.3030  -26.8530   -0.8620 C   0  0  0  0  0  0  0  0  0  0  0  0
   21.6760  -27.9470   -0.2550 C   0  0  0  0  0  0  0  0  0  0  0  0
   20.3520  -28.2570   -0.5420 C   0  0  0  0  0  0  0  0  0  0  0  0
   19.6230  -27.4790   -1.4400 C   0  0  0  0  0  0  0  0  0  0  0  0
   18.1780  -27.8170   -1.7380 C   0  0  0  0  0  0  0  0  0  0  0  0
   17.4580  -27.1670   -0.6520 N   0  0  0  0  0  0  0  0  0  0  0  0
   16.4570  -27.7530    0.0120 C   0  0  0  0  0  0  0  0  0  0  0  0
   16.1150  -28.9040   -0.2480 O   0  0  0  0  0  0  0  0  0  0  0  0
   15.8510  -26.9960    1.2250 C   0  0  2  0  0  0  0  0  0  0  0  0
   16.5270  -27.4210    2.5380 C   0  0  0  0  0  0  0  0  0  0  0  0
   15.4010  -27.4540    3.5660 C   0  0  1  0  0  0  0  0  0  0  0  0
   15.2260  -26.1620    4.1110 O   0  0  0  0  0  0  0  0  0  0  0  0
   14.1860  -27.8510    2.7270 C   0  0  0  0  0  0  0  0  0  0  0  0
   14.4160  -27.2230    1.4320 N   0  0  0  0  0  0  0  0  0  0  0  0
   13.4970  -26.7650    0.5590 C   0  0  0  0  0  0  0  0  0  0  0  0
   13.8500  -26.0150   -0.3520 O   0  0  0  0  0  0  0  0  0  0  0  0
   11.9960  -27.1590    0.7000 C   0  0  1  0  0  0  0  0  0  0  0  0
   11.1290  -25.9880    0.4850 N   0  0  0  0  0  0  0  0  0  0  0  0
   10.1650  -25.6150    1.3210 C   0  0  0  0  0  0  0  0  0  0  0  0
    9.9050  -26.2460    2.3360 O   0  0  0  0  0  0  0  0  0  0  0  0
    9.3390  -24.3960    0.9500 C   0  0  0  0  0  0  0  0  0  0  0  0
    7.9820  -24.8210    0.3990 C   0  0  0  0  0  0  0  0  0  0  0  0
    7.2370  -23.6510    0.1030 O   0  0  0  0  0  0  0  0  0  0  0  0
    5.9350  -23.9450   -0.3880 C   0  0  0  0  0  0  0  0  0  0  0  0
    5.1530  -22.6450   -0.5570 C   0  0  0  0  0  0  0  0  0  0  0  0
    3.8510  -22.9450   -1.0450 O   0  0  0  0  0  0  0  0  0  0  0  0
    3.0240  -21.7910   -1.1290 C   0  0  0  0  0  0  0  0  0  0  0  0
    1.6540  -22.1990   -1.6660 C   0  0  0  0  0  0  0  0  0  0  0  0
    0.7260  -21.1460   -1.4230 O   0  0  0  0  0  0  0  0  0  0  0  0
   -0.5790  -21.3800   -1.9460 C   0  0  0  0  0  0  0  0  0  0  0  0
   -1.3430  -22.4390   -1.1460 C   0  0  0  0  0  0  0  0  0  0  0  0
   -2.7080  -22.4240   -1.5410 O   0  0  0  0  0  0  0  0  0  0  0  0
   -3.4850  -23.4000   -0.8600 C   0  0  0  0  0  0  0  0  0  0  0  0
   -4.9440  -23.2670   -1.2900 C   0  0  0  0  0  0  0  0  0  0  0  0
   -5.6470  -24.3230   -0.5910 O   0  0  0  0  0  0  0  0  0  0  0  0
   -7.0160  -24.5020   -0.6130 C   0  0  0  0  0  0  0  0  0  0  0  0
   -7.8650  -23.6510   -1.3280 C   0  0  0  0  0  0  0  0  0  0  0  0
   -9.2380  -23.8730   -1.3020 C   0  0  0  0  0  0  0  0  0  0  0  0
   -9.7530  -24.9390   -0.5600 C   0  0  0  0  0  0  0  0  0  0  0  0
  -11.1520  -25.1320   -0.5680 N   0  0  0  0  0  0  0  0  0  0  0  0
  -11.9670  -25.4330    0.4900 C   0  0  0  0  0  0  0  0  0  0  0  0
  -11.4640  -25.6440    1.7060 N   0  0  0  0  0  0  0  0  0  0  0  0
  -12.3070  -25.9090    2.6920 C   0  0  0  0  0  0  0  0  0  0  0  0
  -13.6690  -25.9680    2.4620 C   0  0  0  0  0  0  0  0  0  0  0  0
  -14.6380  -26.2420    3.5840 C   0  0  0  0  0  0  0  0  0  0  0  0
  -15.5270  -27.1880    3.2250 F   0  0  0  0  0  0  0  0  0  0  0  0
  -13.9840  -26.6740    4.6780 F   0  0  0  0  0  0  0  0  0  0  0  0
  -15.2960  -25.1180    3.8970 F   0  0  0  0  0  0  0  0  0  0  0  0
  -14.1040  -25.7320    1.1570 C   0  0  0  0  0  0  0  0  0  0  0  0
  -15.4360  -25.7410    0.8040 N   0  0  0  0  0  0  0  0  0  0  0  0
  -15.8540  -25.8210   -0.5930 C   0  0  0  0  0  0  0  0  0  0  0  0
  -17.3570  -25.6610   -0.5160 C   0  0  0  0  0  0  0  0  0  0  0  0
  -18.1950  -26.7750   -0.5800 C   0  0  0  0  0  0  0  0  0  0  0  0
  -19.5760  -26.6150   -0.5090 C   0  0  0  0  0  0  0  0  0  0  0  0
  -20.1300  -25.3480   -0.3690 C   0  0  0  0  0  0  0  0  0  0  0  0
  -19.2980  -24.2240   -0.3000 C   0  0  0  0  0  0  0  0  0  0  0  0
  -19.8740  -22.9360   -0.1240 N   0  0  0  0  0  0  0  0  0  0  0  0
  -19.0130  -21.8170    0.3020 C   0  0  0  0  0  0  0  0  0  0  0  0
  -21.0720  -22.4620   -1.2120 S   0  0  0  0  0  0  0  0  0  0  0  0
  -22.5780  -22.6340   -0.2940 C   0  0  0  0  0  0  0  0  0  0  0  0
  -21.1180  -23.3580   -2.3110 O   0  0  0  0  0  0  0  0  0  0  0  0
  -20.9080  -21.0850   -1.5200 O   0  0  0  0  0  0  0  0  0  0  0  0
  -17.9080  -24.3900   -0.3730 C   0  0  0  0  0  0  0  0  0  0  0  0
  -13.2530  -25.4680    0.1810 N   0  0  0  0  0  0  0  0  0  0  0  0
   -8.9000  -25.7970    0.1420 C   0  0  0  0  0  0  0  0  0  0  0  0
   -7.5280  -25.5730    0.1160 C   0  0  0  0  0  0  0  0  0  0  0  0
   11.5740  -28.3410   -0.2340 C   0  0  0  0  0  0  0  0  0  0  0  0
   12.4370  -29.5900    0.0350 C   0  0  0  0  0  0  0  0  0  0  0  0
   10.1120  -28.7600    0.0350 C   0  0  0  0  0  0  0  0  0  0  0  0
   11.6930  -28.0010   -1.7340 C   0  0  0  0  0  0  0  0  0  0  0  0
   20.2360  -26.3800   -2.0410 C   0  0  0  0  0  0  0  0  0  0  0  0
   21.5610  -26.0700   -1.7540 C   0  0  0  0  0  0  0  0  0  0  0  0
   24.1610  -24.9360   -0.1350 S   0  0  0  0  0  0  0  0  0  0  0  0
   25.7800  -25.4870    0.0280 C   0  0  0  0  0  0  0  0  0  0  0  0
   25.9650  -26.7500   -0.2280 N   0  0  0  0  0  0  0  0  0  0  0  0
   24.0060  -28.9930   -1.6710 H   0  0  0  0  0  0  0  0  0  0  0  0
   24.6000  -29.3830   -0.0190 H   0  0  0  0  0  0  0  0  0  0  0  0
   25.7610  -29.0680   -1.3430 H   0  0  0  0  0  0  0  0  0  0  0  0
   22.2150  -28.5400    0.4380 H   0  0  0  0  0  0  0  0  0  0  0  0
   19.8920  -29.0880   -0.0700 H   0  0  0  0  0  0  0  0  0  0  0  0
   18.0500  -28.8930   -1.7110 H   0  0  0  0  0  0  0  0  0  0  0  0
   17.8830  -27.3850   -2.6850 H   0  0  0  0  0  0  0  0  0  0  0  0
   17.7420  -26.2350   -0.4040 H   0  0  0  0  0  0  0  0  0  0  0  0
   16.0130  -25.9270    1.0800 H   0  0  0  0  0  0  0  0  0  0  0  0
   17.3180  -26.7270    2.8250 H   0  0  0  0  0  0  0  0  0  0  0  0
   16.9350  -28.4270    2.4330 H   0  0  0  0  0  0  0  0  0  0  0  0
   15.5990  -28.1790    4.3590 H   0  0  0  0  0  0  0  0  0  0  0  0
   14.8350  -25.6000    3.4330 H   0  0  0  0  0  0  0  0  0  0  0  0
   13.2790  -27.4930    3.2170 H   0  0  0  0  0  0  0  0  0  0  0  0
   14.1530  -28.9360    2.6150 H   0  0  0  0  0  0  0  0  0  0  0  0
   11.8430  -27.5090    1.7170 H   0  0  0  0  0  0  0  0  0  0  0  0
   11.3470  -25.4210   -0.3180 H   0  0  0  0  0  0  0  0  0  0  0  0
    9.1910  -23.7930    1.8440 H   0  0  0  0  0  0  0  0  0  0  0  0
    9.8630  -23.7990    0.2050 H   0  0  0  0  0  0  0  0  0  0  0  0
    7.4640  -25.4190    1.1520 H   0  0  0  0  0  0  0  0  0  0  0  0
    8.1260  -25.4190   -0.5030 H   0  0  0  0  0  0  0  0  0  0  0  0
    5.9980  -24.4490   -1.3530 H   0  0  0  0  0  0  0  0  0  0  0  0
    5.3970  -24.5810    0.3180 H   0  0  0  0  0  0  0  0  0  0  0  0
    5.6830  -22.0010   -1.2590 H   0  0  0  0  0  0  0  0  0  0  0  0
    5.0910  -22.1500    0.4140 H   0  0  0  0  0  0  0  0  0  0  0  0
    2.8930  -21.3550   -0.1380 H   0  0  0  0  0  0  0  0  0  0  0  0
    3.4610  -21.0470   -1.7970 H   0  0  0  0  0  0  0  0  0  0  0  0
    1.3410  -23.1060   -1.1490 H   0  0  0  0  0  0  0  0  0  0  0  0
    1.7400  -22.4010   -2.7340 H   0  0  0  0  0  0  0  0  0  0  0  0
   -1.1420  -20.4470   -1.8860 H   0  0  0  0  0  0  0  0  0  0  0  0
   -0.5290  -21.6770   -2.9940 H   0  0  0  0  0  0  0  0  0  0  0  0
   -1.2580  -22.2020   -0.0840 H   0  0  0  0  0  0  0  0  0  0  0  0
   -0.9070  -23.4200   -1.3380 H   0  0  0  0  0  0  0  0  0  0  0  0
   -3.1340  -24.4030   -1.1070 H   0  0  0  0  0  0  0  0  0  0  0  0
   -3.4240  -23.2520    0.2200 H   0  0  0  0  0  0  0  0  0  0  0  0
   -5.0270  -23.4020   -2.3680 H   0  0  0  0  0  0  0  0  0  0  0  0
   -5.3240  -22.2900   -0.9920 H   0  0  0  0  0  0  0  0  0  0  0  0
   -7.4740  -22.8410   -1.8840 H   0  0  0  0  0  0  0  0  0  0  0  0
   -9.8920  -23.2330   -1.8340 H   0  0  0  0  0  0  0  0  0  0  0  0
  -11.6840  -24.8370   -1.3900 H   0  0  0  0  0  0  0  0  0  0  0  0
  -11.8970  -26.0690    3.6590 H   0  0  0  0  0  0  0  0  0  0  0  0
  -16.1050  -26.1830    1.4530 H   0  0  0  0  0  0  0  0  0  0  0  0
  -15.4360  -25.0000   -1.1620 H   0  0  0  0  0  0  0  0  0  0  0  0
  -15.6030  -26.7920   -1.0020 H   0  0  0  0  0  0  0  0  0  0  0  0
  -17.7850  -27.7470   -0.6860 H   0  0  0  0  0  0  0  0  0  0  0  0
  -20.2090  -27.4640   -0.5630 H   0  0  0  0  0  0  0  0  0  0  0  0
  -21.1790  -25.2400   -0.3130 H   0  0  0  0  0  0  0  0  0  0  0  0
  -18.3750  -22.1690    1.1020 H   0  0  0  0  0  0  0  0  0  0  0  0
  -19.6500  -21.0210    0.6690 H   0  0  0  0  0  0  0  0  0  0  0  0
  -18.4360  -21.4920   -0.5540 H   0  0  0  0  0  0  0  0  0  0  0  0
  -22.7960  -23.6510   -0.0130 H   0  0  0  0  0  0  0  0  0  0  0  0
  -23.4380  -22.2950   -0.8510 H   0  0  0  0  0  0  0  0  0  0  0  0
  -22.5840  -22.0520    0.6140 H   0  0  0  0  0  0  0  0  0  0  0  0
  -17.2620  -23.5540   -0.3270 H   0  0  0  0  0  0  0  0  0  0  0  0
   -9.2960  -26.6140    0.6870 H   0  0  0  0  0  0  0  0  0  0  0  0
   -6.8690  -26.2100    0.6470 H   0  0  0  0  0  0  0  0  0  0  0  0
   12.1000  -30.4250   -0.5810 H   0  0  0  0  0  0  0  0  0  0  0  0
   12.3670  -29.8810    1.0830 H   0  0  0  0  0  0  0  0  0  0  0  0
   13.4820  -29.3950   -0.2110 H   0  0  0  0  0  0  0  0  0  0  0  0
    9.8510  -29.6400   -0.5530 H   0  0  0  0  0  0  0  0  0  0  0  0
    9.4280  -27.9560   -0.2350 H   0  0  0  0  0  0  0  0  0  0  0  0
    9.9760  -28.9900    1.0930 H   0  0  0  0  0  0  0  0  0  0  0  0
   11.3750  -28.8500   -2.3400 H   0  0  0  0  0  0  0  0  0  0  0  0
   12.7280  -27.7670   -1.9890 H   0  0  0  0  0  0  0  0  0  0  0  0
   11.0670  -27.1440   -1.9820 H   0  0  0  0  0  0  0  0  0  0  0  0
   19.6930  -25.7750   -2.7210 H   0  0  0  0  0  0  0  0  0  0  0  0
   22.0180  -25.2350   -2.2180 H   0  0  0  0  0  0  0  0  0  0  0  0
   26.5440  -24.8110    0.3180 H   0  0  0  0  0  0  0  0  0  0  0  0
  1  2  1  0  0  0  0
  1 79  1  0  0  0  0
  1 80  1  0  0  0  0
  1 81  1  0  0  0  0
  2  3  2  0  0  0  0
  2 78  1  0  0  0  0
  3  4  1  0  0  0  0
  3 76  1  0  0  0  0
  4  5  1  0  0  0  0
  4 75  2  0  0  0  0
  5  6  2  0  0  0  0
  5 82  1  0  0  0  0
  6  7  1  0  0  0  0
  6 83  1  0  0  0  0
  7  8  1  0  0  0  0
  7 74  2  0  0  0  0
  8  9  1  0  0  0  0
  8 84  1  0  0  0  0
  8 85  1  0  0  0  0
  9 10  1  0  0  0  0
  9 86  1  0  0  0  0
 10 11  2  0  0  0  0
 10 12  1  0  0  0  0
 12 13  1  0  0  0  0
 12 17  1  0  0  0  0
 12 87  1  0  0  0  0
 13 14  1  0  0  0  0
 13 88  1  0  0  0  0
 13 89  1  0  0  0  0
 14 15  1  0  0  0  0
 14 16  1  0  0  0  0
 14 90  1  0  0  0  0
 15 91  1  0  0  0  0
 16 17  1  0  0  0  0
 16 92  1  0  0  0  0
 16 93  1  0  0  0  0
 17 18  1  0  0  0  0
 18 19  2  0  0  0  0
 18 20  1  0  0  0  0
 20 21  1  0  0  0  0
 20 70  1  0  0  0  0
 20 94  1  0  0  0  0
 21 22  1  0  0  0  0
 21 95  1  0  0  0  0
 22 23  2  0  0  0  0
 22 24  1  0  0  0  0
 24 25  1  0  0  0  0
 24 96  1  0  0  0  0
 24 97  1  0  0  0  0
 25 26  1  0  0  0  0
 25 98  1  0  0  0  0
 25 99  1  0  0  0  0
 26 27  1  0  0  0  0
 27 28  1  0  0  0  0
 27100  1  0  0  0  0
 27101  1  0  0  0  0
 28 29  1  0  0  0  0
 28102  1  0  0  0  0
 28103  1  0  0  0  0
 29 30  1  0  0  0  0
 30 31  1  0  0  0  0
 30104  1  0  0  0  0
 30105  1  0  0  0  0
 31 32  1  0  0  0  0
 31106  1  0  0  0  0
 31107  1  0  0  0  0
 32 33  1  0  0  0  0
 33 34  1  0  0  0  0
 33108  1  0  0  0  0
 33109  1  0  0  0  0
 34 35  1  0  0  0  0
 34110  1  0  0  0  0
 34111  1  0  0  0  0
 35 36  1  0  0  0  0
 36 37  1  0  0  0  0
 36112  1  0  0  0  0
 36113  1  0  0  0  0
 37 38  1  0  0  0  0
 37114  1  0  0  0  0
 37115  1  0  0  0  0
 38 39  1  0  0  0  0
 39 40  1  0  0  0  0
 39 69  2  0  0  0  0
 40 41  2  0  0  0  0
 40116  1  0  0  0  0
 41 42  1  0  0  0  0
 41117  1  0  0  0  0
 42 43  1  0  0  0  0
 42 68  2  0  0  0  0
 43 44  1  0  0  0  0
 43118  1  0  0  0  0
 44 45  1  0  0  0  0
 44 67  2  0  0  0  0
 45 46  2  0  0  0  0
 46 47  1  0  0  0  0
 46119  1  0  0  0  0
 47 48  1  0  0  0  0
 47 52  2  0  0  0  0
 48 49  1  0  0  0  0
 48 50  1  0  0  0  0
 48 51  1  0  0  0  0
 52 53  1  0  0  0  0
 52 67  1  0  0  0  0
 53 54  1  0  0  0  0
 53120  1  0  0  0  0
 54 55  1  0  0  0  0
 54121  1  0  0  0  0
 54122  1  0  0  0  0
 55 56  1  0  0  0  0
 55 66  2  0  0  0  0
 56 57  2  0  0  0  0
 56123  1  0  0  0  0
 57 58  1  0  0  0  0
 57124  1  0  0  0  0
 58 59  2  0  0  0  0
 58125  1  0  0  0  0
 59 60  1  0  0  0  0
 59 66  1  0  0  0  0
 60 61  1  0  0  0  0
 60 62  1  0  0  0  0
 61126  1  0  0  0  0
 61127  1  0  0  0  0
 61128  1  0  0  0  0
 62 63  1  0  0  0  0
 62 64  2  0  0  0  0
 62 65  2  0  0  0  0
 63129  1  0  0  0  0
 63130  1  0  0  0  0
 63131  1  0  0  0  0
 66132  1  0  0  0  0
 68 69  1  0  0  0  0
 68133  1  0  0  0  0
 69134  1  0  0  0  0
 70 71  1  0  0  0  0
 70 72  1  0  0  0  0
 70 73  1  0  0  0  0
 71135  1  0  0  0  0
 71136  1  0  0  0  0
 71137  1  0  0  0  0
 72138  1  0  0  0  0
 72139  1  0  0  0  0
 72140  1  0  0  0  0
 73141  1  0  0  0  0
 73142  1  0  0  0  0
 73143  1  0  0  0  0
 74 75  1  0  0  0  0
 74144  1  0  0  0  0
 75145  1  0  0  0  0
 76 77  1  0  0  0  0
 77 78  2  0  0  0  0
 77146  1  0  0  0  0
M  END
>  <Compound ID>
270

>  <Uniprot>
Q05397

>  <Target>
FAK

>  <E3 ligase>
VHL

>  <DC50 (nM)>
48.1

>  <Dmax (%)>
91

>  <Assay (DC50/Dmax)>
Degradation of Fak in PC3 cells after 24 h treatment

>  <IC50 (nM, Protac to Target)>
6.0999999

>  <Assay (Protac to Target, IC50)>
Inhibition of Fak

>  <Article DOI>
10.1021/jacs.8b08008

>  <Molecular Weight>
1128.307

>  <Exact Mass>
1127.4432

>  <XLogP3>
5.3200002

>  <Heavy Atom Count>
78

>  <Ring Count>
6

>  <Hydrogen Bond Acceptor Count>
17

>  <Hydrogen Bond Donor Count>
5

>  <Rotatable Bond Count>
29

>  <Topological Polar Surface Area>
245

>  <Molecular Formula>
C53H68F3N9O11S2

>  <InChI>
InChI=1S/C53H68F3N9O11S2/c1-35-46(77-34-60-35)38-12-10-36(11-13-38)30-58-49(68)44-29-41(66)33-65(44)50(69)47(52(2,3)4)62-45(67)18-19-72-20-21-73-22-23-74-24-25-75-26-27-76-42-16-14-39(15-17-42)61-51-59-32-43(53(54,55)56)48(63-51)57-31-37-8-7-9-40(28-37)64(5)78(6,70)71/h7-17,28,32,34,41,44,47,66H,18-27,29-31,33H2,1-6H3,(H,58,68)(H,62,67)(H2,57,59,61,63)/t41-,44+,47-/m1/s1

>  <InChI Key>
CVMXJJVQILKJCT-IIWOMYBWSA-N

$$$$
2887
  MOE2022           3D

158164  0  0  1  0  0  0  0  0999 V2000
   -0.9550  -12.8230   -2.0620 C   0  0  0  0  0  0  0  0  0  0  0  0
    0.1470  -12.1100   -1.4030 N   0  0  0  0  0  0  0  0  0  0  0  0
    1.3460  -12.7100   -1.1030 C   0  0  0  0  0  0  0  0  0  0  0  0
    1.4770  -13.8800   -1.4600 O   0  0  0  0  0  0  0  0  0  0  0  0
    2.3650  -11.9450   -0.3730 C   0  0  0  0  0  0  0  0  0  0  0  0
    2.3810  -10.5400   -0.4330 C   0  0  0  0  0  0  0  0  0  0  0  0
    3.3050   -9.7990    0.2960 C   0  0  0  0  0  0  0  0  0  0  0  0
    4.2390  -10.4450    1.1030 C   0  0  0  0  0  0  0  0  0  0  0  0
    4.2640  -11.8310    1.1690 C   0  0  0  0  0  0  0  0  0  0  0  0
    3.3520  -12.5820    0.4170 C   0  0  0  0  0  0  0  0  0  0  0  0
    3.4090  -13.9900    0.4680 N   0  0  0  0  0  0  0  0  0  0  0  0
    4.5330  -14.7380    0.8480 C   0  0  0  0  0  0  0  0  0  0  0  0
    5.7620  -14.4450    0.2770 C   0  0  0  0  0  0  0  0  0  0  0  0
    6.8720  -15.1850    0.6700 C   0  0  0  0  0  0  0  0  0  0  0  0
    8.1040  -14.8660    0.1070 N   0  0  0  0  0  0  0  0  0  0  0  0
    9.3930  -15.3800    0.4120 C   0  0  0  0  0  0  0  0  0  0  0  0
    9.6160  -16.7200    0.7310 C   0  0  0  0  0  0  0  0  0  0  0  0
   10.9080  -17.1620    1.0020 C   0  0  0  0  0  0  0  0  0  0  0  0
   11.9900  -16.2750    0.9350 C   0  0  0  0  0  0  0  0  0  0  0  0
   13.2910  -16.7810    1.2070 N   0  0  0  0  0  0  0  0  0  0  0  0
   14.3580  -15.8070    1.5400 C   0  0  0  0  0  0  0  0  0  0  0  0
   15.5100  -16.6090    2.2020 C   0  0  0  0  0  0  0  0  0  0  0  0
   16.0180  -17.6300    1.2140 N   0  3  0  0  0  0  0  0  0  0  0  0
   17.1400  -18.3820    1.8390 C   0  0  0  0  0  0  0  0  0  0  0  0
   18.4270  -17.5530    1.6740 C   0  0  0  0  0  0  0  0  0  0  0  0
   19.4220  -18.3240    2.3190 O   0  0  0  0  0  0  0  0  0  0  0  0
   20.7200  -17.7410    2.2240 C   0  0  0  0  0  0  0  0  0  0  0  0
   21.7460  -18.6020    2.9670 C   0  0  0  0  0  0  0  0  0  0  0  0
   23.0620  -18.2060    2.6040 O   0  0  0  0  0  0  0  0  0  0  0  0
   23.5670  -18.8700    1.4480 C   0  0  0  0  0  0  0  0  0  0  0  0
   24.8630  -18.1980    1.0030 C   0  0  0  0  0  0  0  0  0  0  0  0
   25.0840  -18.4960   -0.3700 O   0  0  0  0  0  0  0  0  0  0  0  0
   26.1940  -17.7880   -0.9010 C   0  0  0  0  0  0  0  0  0  0  0  0
   26.4430  -18.2430   -2.3380 C   0  0  0  0  0  0  0  0  0  0  0  0
   27.6920  -17.6070   -2.7650 O   0  0  0  0  0  0  0  0  0  0  0  0
   27.5760  -16.3650   -3.5620 C   0  0  0  0  0  0  0  0  0  0  0  0
   27.3640  -15.1950   -2.6060 C   0  0  0  0  0  0  0  0  0  0  0  0
   26.3060  -14.5860   -2.5630 O   0  0  0  0  0  0  0  0  0  0  0  0
   28.3010  -14.7990   -1.7490 N   0  0  0  0  0  0  0  0  0  0  0  0
   29.6340  -15.3920   -1.5210 C   0  0  2  0  0  0  0  0  0  0  0  0
   29.7760  -16.2990   -0.2500 C   0  0  0  0  0  0  0  0  0  0  0  0
   30.6000  -17.2130   -0.2880 O   0  0  0  0  0  0  0  0  0  0  0  0
   29.0270  -16.1540    0.8690 N   0  0  0  0  0  0  0  0  0  0  0  0
   27.9460  -15.2040    1.1280 C   0  0  0  0  0  0  0  0  0  0  0  0
   27.5670  -15.3370    2.6090 C   0  0  2  0  0  0  0  0  0  0  0  0
   27.3910  -14.0770    3.2240 O   0  0  0  0  0  0  0  0  0  0  0  0
   28.7690  -16.0420    3.2280 C   0  0  0  0  0  0  0  0  0  0  0  0
   29.2920  -16.9290    2.0930 C   0  0  1  0  0  0  0  0  0  0  0  0
   28.7210  -18.3770    2.0770 C   0  0  0  0  0  0  0  0  0  0  0  0
   27.9290  -18.7660    2.9320 O   0  0  0  0  0  0  0  0  0  0  0  0
   29.1090  -19.1760    1.0850 N   0  0  0  0  0  0  0  0  0  0  0  0
   28.8530  -20.5990    1.0380 C   0  0  1  0  0  0  0  0  0  0  0  0
   27.9010  -20.8540   -0.1340 C   0  0  0  0  0  0  0  0  0  0  0  0
   30.1820  -21.2790    0.7380 C   0  0  0  0  0  0  0  0  0  0  0  0
   30.6140  -22.3220    1.5560 C   0  0  0  0  0  0  0  0  0  0  0  0
   31.8210  -22.9650    1.3070 C   0  0  0  0  0  0  0  0  0  0  0  0
   32.6290  -22.5840    0.2310 C   0  0  0  0  0  0  0  0  0  0  0  0
   33.8940  -23.2640   -0.0240 C   0  0  0  0  0  0  0  0  0  0  0  0
   34.3890  -23.7740   -1.1980 C   0  0  0  0  0  0  0  0  0  0  0  0
   33.6720  -23.7490   -2.5280 C   0  0  0  0  0  0  0  0  0  0  0  0
   35.6220  -24.3370   -1.1160 N   0  0  0  0  0  0  0  0  0  0  0  0
   36.0750  -24.2760    0.1030 C   0  0  0  0  0  0  0  0  0  0  0  0
   35.0240  -23.5280    1.2390 S   0  0  0  0  0  0  0  0  0  0  0  0
   32.1960  -21.5310   -0.5830 C   0  0  0  0  0  0  0  0  0  0  0  0
   30.9880  -20.8880   -0.3360 C   0  0  0  0  0  0  0  0  0  0  0  0
   30.7150  -14.2610   -1.5900 C   0  0  0  0  0  0  0  0  0  0  0  0
   30.5630  -13.2150   -0.4670 C   0  0  0  0  0  0  0  0  0  0  0  0
   32.1450  -14.8320   -1.4970 C   0  0  0  0  0  0  0  0  0  0  0  0
   30.6450  -13.5150   -2.9410 C   0  0  0  0  0  0  0  0  0  0  0  0
   14.9000  -18.6070    0.9730 C   0  0  0  0  0  0  0  0  0  0  0  0
   13.7220  -17.8650    0.2850 C   0  0  0  0  0  0  0  0  0  0  0  0
   11.7710  -14.9280    0.6080 C   0  0  0  0  0  0  0  0  0  0  0  0
   10.4750  -14.4910    0.3430 C   0  0  0  0  0  0  0  0  0  0  0  0
   10.2110  -13.1650   -0.0090 O   0  0  0  0  0  0  0  0  0  0  0  0
   11.1830  -12.0960   -0.0400 C   0  0  0  0  0  0  0  0  0  0  0  0
    6.7890  -16.1690    1.5720 N   0  0  0  0  0  0  0  0  0  0  0  0
    5.6040  -16.4600    2.1120 C   0  0  0  0  0  0  0  0  0  0  0  0
    4.4350  -15.7760    1.7810 C   0  0  0  0  0  0  0  0  0  0  0  0
    3.1130  -16.1410    2.4370 C   0  0  0  0  0  0  0  0  0  0  0  0
    2.1880  -16.4240    1.5010 F   0  0  0  0  0  0  0  0  0  0  0  0
    3.2560  -17.2280    3.2220 F   0  0  0  0  0  0  0  0  0  0  0  0
    2.6790  -15.1260    3.2040 F   0  0  0  0  0  0  0  0  0  0  0  0
   -1.6820  -12.0930   -2.4200 H   0  0  0  0  0  0  0  0  0  0  0  0
   -1.4140  -13.4970   -1.3360 H   0  0  0  0  0  0  0  0  0  0  0  0
   -0.5540  -13.3940   -2.9020 H   0  0  0  0  0  0  0  0  0  0  0  0
   -0.0550  -11.2030   -0.9610 H   0  0  0  0  0  0  0  0  0  0  0  0
    1.6850  -10.0280   -1.0460 H   0  0  0  0  0  0  0  0  0  0  0  0
    3.3000   -8.7400    0.2410 H   0  0  0  0  0  0  0  0  0  0  0  0
    4.9330   -9.8750    1.6670 H   0  0  0  0  0  0  0  0  0  0  0  0
    4.9700  -12.3150    1.7920 H   0  0  0  0  0  0  0  0  0  0  0  0
    2.6720  -14.4780   -0.0940 H   0  0  0  0  0  0  0  0  0  0  0  0
    5.8540  -13.6790   -0.4450 H   0  0  0  0  0  0  0  0  0  0  0  0
    8.1430  -13.9450   -0.3490 H   0  0  0  0  0  0  0  0  0  0  0  0
    8.8050  -17.3990    0.7660 H   0  0  0  0  0  0  0  0  0  0  0  0
   11.0670  -18.1710    1.2740 H   0  0  0  0  0  0  0  0  0  0  0  0
   14.7190  -15.3220    0.6430 H   0  0  0  0  0  0  0  0  0  0  0  0
   13.9820  -15.1030    2.2730 H   0  0  0  0  0  0  0  0  0  0  0  0
   15.1010  -17.1060    3.0740 H   0  0  0  0  0  0  0  0  0  0  0  0
   16.2960  -15.9100    2.4620 H   0  0  0  0  0  0  0  0  0  0  0  0
   16.2940  -17.1940    0.3420 H   0  0  0  0  0  0  0  0  0  0  0  0
   16.9630  -18.5360    2.8980 H   0  0  0  0  0  0  0  0  0  0  0  0
   17.3010  -19.3210    1.3220 H   0  0  0  0  0  0  0  0  0  0  0  0
   18.3320  -16.5820    2.1620 H   0  0  0  0  0  0  0  0  0  0  0  0
   18.6640  -17.4320    0.6160 H   0  0  0  0  0  0  0  0  0  0  0  0
   21.0150  -17.6660    1.1770 H   0  0  0  0  0  0  0  0  0  0  0  0
   20.7300  -16.7430    2.6650 H   0  0  0  0  0  0  0  0  0  0  0  0
   21.5810  -19.6580    2.7460 H   0  0  0  0  0  0  0  0  0  0  0  0
   21.6110  -18.4490    4.0390 H   0  0  0  0  0  0  0  0  0  0  0  0
   23.7640  -19.9210    1.6640 H   0  0  0  0  0  0  0  0  0  0  0  0
   22.8530  -18.8000    0.6270 H   0  0  0  0  0  0  0  0  0  0  0  0
   25.6870  -18.5610    1.6190 H   0  0  0  0  0  0  0  0  0  0  0  0
   24.7560  -17.1210    1.1380 H   0  0  0  0  0  0  0  0  0  0  0  0
   25.9820  -16.7200   -0.8950 H   0  0  0  0  0  0  0  0  0  0  0  0
   27.0880  -17.9870   -0.3110 H   0  0  0  0  0  0  0  0  0  0  0  0
   25.6040  -17.9520   -2.9710 H   0  0  0  0  0  0  0  0  0  0  0  0
   26.5550  -19.3270   -2.3560 H   0  0  0  0  0  0  0  0  0  0  0  0
   28.5060  -16.2060   -4.0880 H   0  0  0  0  0  0  0  0  0  0  0  0
   26.7260  -16.4260   -4.2280 H   0  0  0  0  0  0  0  0  0  0  0  0
   28.0580  -13.9820   -1.2180 H   0  0  0  0  0  0  0  0  0  0  0  0
   29.8550  -16.0620   -2.3500 H   0  0  0  0  0  0  0  0  0  0  0  0
   28.2810  -14.1850    0.9360 H   0  0  0  0  0  0  0  0  0  0  0  0
   27.0700  -15.4230    0.5170 H   0  0  0  0  0  0  0  0  0  0  0  0
   26.6740  -15.9580    2.7070 H   0  0  0  0  0  0  0  0  0  0  0  0
   28.2470  -13.7190    3.4750 H   0  0  0  0  0  0  0  0  0  0  0  0
   29.5400  -15.3160    3.4870 H   0  0  0  0  0  0  0  0  0  0  0  0
   28.4860  -16.6160    4.1100 H   0  0  0  0  0  0  0  0  0  0  0  0
   30.3700  -17.0330    2.2250 H   0  0  0  0  0  0  0  0  0  0  0  0
   29.7510  -18.7830    0.4050 H   0  0  0  0  0  0  0  0  0  0  0  0
   28.4250  -20.9720    1.9610 H   0  0  0  0  0  0  0  0  0  0  0  0
   28.3010  -20.3940   -1.0380 H   0  0  0  0  0  0  0  0  0  0  0  0
   26.9340  -20.4240    0.1220 H   0  0  0  0  0  0  0  0  0  0  0  0
   27.8060  -21.9310   -0.2640 H   0  0  0  0  0  0  0  0  0  0  0  0
   30.0200  -22.6300    2.3790 H   0  0  0  0  0  0  0  0  0  0  0  0
   32.1340  -23.7560    1.9390 H   0  0  0  0  0  0  0  0  0  0  0  0
   32.5970  -23.7870   -2.3520 H   0  0  0  0  0  0  0  0  0  0  0  0
   33.9890  -24.6210   -3.0990 H   0  0  0  0  0  0  0  0  0  0  0  0
   33.9560  -22.8340   -3.0460 H   0  0  0  0  0  0  0  0  0  0  0  0
   37.0150  -24.6500    0.4180 H   0  0  0  0  0  0  0  0  0  0  0  0
   32.8010  -21.2130   -1.3920 H   0  0  0  0  0  0  0  0  0  0  0  0
   30.6850  -20.0930   -0.9680 H   0  0  0  0  0  0  0  0  0  0  0  0
   31.3440  -12.4570   -0.5510 H   0  0  0  0  0  0  0  0  0  0  0  0
   30.6530  -13.6910    0.5110 H   0  0  0  0  0  0  0  0  0  0  0  0
   29.5970  -12.7140   -0.5350 H   0  0  0  0  0  0  0  0  0  0  0  0
   32.8860  -14.0450   -1.6510 H   0  0  0  0  0  0  0  0  0  0  0  0
   32.2940  -15.6030   -2.2550 H   0  0  0  0  0  0  0  0  0  0  0  0
   32.3250  -15.2700   -0.5150 H   0  0  0  0  0  0  0  0  0  0  0  0
   31.4420  -12.7720   -3.0100 H   0  0  0  0  0  0  0  0  0  0  0  0
   29.6930  -12.9940   -3.0500 H   0  0  0  0  0  0  0  0  0  0  0  0
   30.7570  -14.2200   -3.7660 H   0  0  0  0  0  0  0  0  0  0  0  0
   15.2300  -19.3970    0.3090 H   0  0  0  0  0  0  0  0  0  0  0  0
   14.5340  -18.9940    1.9170 H   0  0  0  0  0  0  0  0  0  0  0  0
   12.9240  -18.5800    0.1390 H   0  0  0  0  0  0  0  0  0  0  0  0
   14.0550  -17.4410   -0.6540 H   0  0  0  0  0  0  0  0  0  0  0  0
   12.5760  -14.2510    0.5460 H   0  0  0  0  0  0  0  0  0  0  0  0
   10.6620  -11.1790   -0.3120 H   0  0  0  0  0  0  0  0  0  0  0  0
   11.9390  -12.3400   -0.7870 H   0  0  0  0  0  0  0  0  0  0  0  0
   11.6210  -12.0030    0.9540 H   0  0  0  0  0  0  0  0  0  0  0  0
    5.5890  -17.2490    2.8210 H   0  0  0  0  0  0  0  0  0  0  0  0
  1  2  1  0  0  0  0
  1 83  1  0  0  0  0
  1 84  1  0  0  0  0
  1 85  1  0  0  0  0
  2  3  1  0  0  0  0
  2 86  1  0  0  0  0
  3  4  2  0  0  0  0
  3  5  1  0  0  0  0
  5  6  1  0  0  0  0
  5 10  2  0  0  0  0
  6  7  2  0  0  0  0
  6 87  1  0  0  0  0
  7  8  1  0  0  0  0
  7 88  1  0  0  0  0
  8  9  2  0  0  0  0
  8 89  1  0  0  0  0
  9 10  1  0  0  0  0
  9 90  1  0  0  0  0
 10 11  1  0  0  0  0
 11 12  1  0  0  0  0
 11 91  1  0  0  0  0
 12 13  1  0  0  0  0
 12 78  2  0  0  0  0
 13 14  2  0  0  0  0
 13 92  1  0  0  0  0
 14 15  1  0  0  0  0
 14 76  1  0  0  0  0
 15 16  1  0  0  0  0
 15 93  1  0  0  0  0
 16 17  1  0  0  0  0
 16 73  2  0  0  0  0
 17 18  2  0  0  0  0
 17 94  1  0  0  0  0
 18 19  1  0  0  0  0
 18 95  1  0  0  0  0
 19 20  1  0  0  0  0
 19 72  2  0  0  0  0
 20 21  1  0  0  0  0
 20 71  1  0  0  0  0
 21 22  1  0  0  0  0
 21 96  1  0  0  0  0
 21 97  1  0  0  0  0
 22 23  1  0  0  0  0
 22 98  1  0  0  0  0
 22 99  1  0  0  0  0
 23 24  1  0  0  0  0
 23 70  1  0  0  0  0
 23100  1  0  0  0  0
 24 25  1  0  0  0  0
 24101  1  0  0  0  0
 24102  1  0  0  0  0
 25 26  1  0  0  0  0
 25103  1  0  0  0  0
 25104  1  0  0  0  0
 26 27  1  0  0  0  0
 27 28  1  0  0  0  0
 27105  1  0  0  0  0
 27106  1  0  0  0  0
 28 29  1  0  0  0  0
 28107  1  0  0  0  0
 28108  1  0  0  0  0
 29 30  1  0  0  0  0
 30 31  1  0  0  0  0
 30109  1  0  0  0  0
 30110  1  0  0  0  0
 31 32  1  0  0  0  0
 31111  1  0  0  0  0
 31112  1  0  0  0  0
 32 33  1  0  0  0  0
 33 34  1  0  0  0  0
 33113  1  0  0  0  0
 33114  1  0  0  0  0
 34 35  1  0  0  0  0
 34115  1  0  0  0  0
 34116  1  0  0  0  0
 35 36  1  0  0  0  0
 36 37  1  0  0  0  0
 36117  1  0  0  0  0
 36118  1  0  0  0  0
 37 38  2  0  0  0  0
 37 39  1  0  0  0  0
 39 40  1  0  0  0  0
 39119  1  0  0  0  0
 40 41  1  0  0  0  0
 40 66  1  0  0  0  0
 40120  1  0  0  0  0
 41 42  2  0  0  0  0
 41 43  1  0  0  0  0
 43 44  1  0  0  0  0
 43 48  1  0  0  0  0
 44 45  1  0  0  0  0
 44121  1  0  0  0  0
 44122  1  0  0  0  0
 45 46  1  0  0  0  0
 45 47  1  0  0  0  0
 45123  1  0  0  0  0
 46124  1  0  0  0  0
 47 48  1  0  0  0  0
 47125  1  0  0  0  0
 47126  1  0  0  0  0
 48 49  1  0  0  0  0
 48127  1  0  0  0  0
 49 50  2  0  0  0  0
 49 51  1  0  0  0  0
 51 52  1  0  0  0  0
 51128  1  0  0  0  0
 52 53  1  0  0  0  0
 52 54  1  0  0  0  0
 52129  1  0  0  0  0
 53130  1  0  0  0  0
 53131  1  0  0  0  0
 53132  1  0  0  0  0
 54 55  1  0  0  0  0
 54 65  2  0  0  0  0
 55 56  2  0  0  0  0
 55133  1  0  0  0  0
 56 57  1  0  0  0  0
 56134  1  0  0  0  0
 57 58  1  0  0  0  0
 57 64  2  0  0  0  0
 58 59  2  0  0  0  0
 58 63  1  0  0  0  0
 59 60  1  0  0  0  0
 59 61  1  0  0  0  0
 60135  1  0  0  0  0
 60136  1  0  0  0  0
 60137  1  0  0  0  0
 61 62  2  0  0  0  0
 62 63  1  0  0  0  0
 62138  1  0  0  0  0
 64 65  1  0  0  0  0
 64139  1  0  0  0  0
 65140  1  0  0  0  0
 66 67  1  0  0  0  0
 66 68  1  0  0  0  0
 66 69  1  0  0  0  0
 67141  1  0  0  0  0
 67142  1  0  0  0  0
 67143  1  0  0  0  0
 68144  1  0  0  0  0
 68145  1  0  0  0  0
 68146  1  0  0  0  0
 69147  1  0  0  0  0
 69148  1  0  0  0  0
 69149  1  0  0  0  0
 70 71  1  0  0  0  0
 70150  1  0  0  0  0
 70151  1  0  0  0  0
 71152  1  0  0  0  0
 71153  1  0  0  0  0
 72 73  1  0  0  0  0
 72154  1  0  0  0  0
 73 74  1  0  0  0  0
 74 75  1  0  0  0  0
 75155  1  0  0  0  0
 75156  1  0  0  0  0
 75157  1  0  0  0  0
 76 77  2  0  0  0  0
 77 78  1  0  0  0  0
 77158  1  0  0  0  0
 78 79  1  0  0  0  0
 79 80  1  0  0  0  0
 79 81  1  0  0  0  0
 79 82  1  0  0  0  0
M  CHG  1  23   1
M  END
>  <Compound ID>
2887

>  <Uniprot>
Q05397

>  <Target>
FAK

>  <E3 ligase>
VHL

>  <DC50 (nM)>
125.9 

>  <Assay (DC50/Dmax)>
Degradation of FAK in A549 cells after 24 h treatment

>  <IC50 (nM, Protac to Target)>
0.63

>  <Assay (Protac to Target, IC50)>
IC50 was assessed by FRET

>  <Article DOI>
10.1002/anie.202109237

>  <Molecular Weight>
1161.359

>  <Exact Mass>
1160.5341

>  <XLogP3>
6.8099999

>  <Heavy Atom Count>
82

>  <Ring Count>
7

>  <Hydrogen Bond Acceptor Count>
17

>  <Hydrogen Bond Donor Count>
6

>  <Rotatable Bond Count>
27

>  <Topological Polar Surface Area>
230.31

>  <Molecular Formula>
C58H75F3N10O10S

>  <InChI>
InChI=1S/C58H75F3N10O10S/c1-37(39-12-14-40(15-13-39)52-38(2)64-36-82-52)65-55(75)48-31-42(72)34-71(48)56(76)53(57(3,4)5)68-51(73)35-81-29-28-80-27-26-79-25-24-78-23-22-69-18-20-70(21-19-69)41-16-17-46(49(30-41)77-7)67-50-32-47(44(33-63-50)58(59,60)61)66-45-11-9-8-10-43(45)54(74)62-6/h8-17,30,32-33,36-37,42,48,53,72H,18-29,31,34-35H2,1-7H3,(H,62,74)(H,65,75)(H,68,73)(H2,63,66,67)/t37-,42+,48-,53+/m0/s1

>  <InChI Key>
FOOHAGZPIHCYKX-ZSFXBAAMSA-N

>  <IC50 (nM, Protac to E3)>
316.20001

>  <Assay (Protac to E3, IC50)>
PF

>  <IC50 (nM, Ternary complex)>
5.0100002

>  <Assay (Ternary complex, IC50)>
IC50 between VHL and the complex of protac and FAK was tested by FRET

$$$$
2888
  MOE2022           3D

157163  0  0  1  0  0  0  0  0999 V2000
  -12.4780  -16.6180   -3.1800 C   0  0  0  0  0  0  0  0  0  0  0  0
  -11.7090  -16.7720   -1.9380 N   0  0  0  0  0  0  0  0  0  0  0  0
  -10.4850  -17.3950   -1.8940 C   0  0  0  0  0  0  0  0  0  0  0  0
  -10.0850  -17.8940   -2.9450 O   0  0  0  0  0  0  0  0  0  0  0  0
   -9.7340  -17.4020   -0.6330 C   0  0  0  0  0  0  0  0  0  0  0  0
  -10.4080  -17.3070    0.5980 C   0  0  0  0  0  0  0  0  0  0  0  0
   -9.7080  -17.2480    1.7980 C   0  0  0  0  0  0  0  0  0  0  0  0
   -8.3150  -17.2820    1.7980 C   0  0  0  0  0  0  0  0  0  0  0  0
   -7.6200  -17.3970    0.6030 C   0  0  0  0  0  0  0  0  0  0  0  0
   -8.3220  -17.4860   -0.6060 C   0  0  0  0  0  0  0  0  0  0  0  0
   -7.6110  -17.6400   -1.8130 N   0  0  0  0  0  0  0  0  0  0  0  0
   -6.2820  -18.0710   -1.9310 C   0  0  0  0  0  0  0  0  0  0  0  0
   -5.8820  -19.2190   -1.2620 C   0  0  0  0  0  0  0  0  0  0  0  0
   -4.5560  -19.6230   -1.3740 C   0  0  0  0  0  0  0  0  0  0  0  0
   -4.1530  -20.7590   -0.6760 N   0  0  0  0  0  0  0  0  0  0  0  0
   -2.8170  -21.1400   -0.3850 C   0  0  0  0  0  0  0  0  0  0  0  0
   -1.8260  -21.1710   -1.3670 C   0  0  0  0  0  0  0  0  0  0  0  0
   -0.5270  -21.5380   -1.0300 C   0  0  0  0  0  0  0  0  0  0  0  0
   -0.2140  -21.8880    0.2930 C   0  0  0  0  0  0  0  0  0  0  0  0
    1.1050  -22.2350    0.6810 N   0  0  0  0  0  0  0  0  0  0  0  0
    1.2570  -23.6400    1.1300 C   0  0  0  0  0  0  0  0  0  0  0  0
    2.5800  -23.7120    1.9410 C   0  0  0  0  0  0  0  0  0  0  0  0
    3.7270  -23.3000    1.0570 N   0  3  0  0  0  0  0  0  0  0  0  0
    4.9610  -23.3770    1.8560 C   0  0  0  0  0  0  0  0  0  0  0  0
    6.1010  -23.5100    0.8350 C   0  0  0  0  0  0  0  0  0  0  0  0
    7.4100  -23.4370    1.6350 C   0  0  0  0  0  0  0  0  0  0  0  0
    8.6140  -23.5340    0.6890 C   0  0  0  0  0  0  0  0  0  0  0  0
    9.9240  -23.3350    1.4620 C   0  0  0  0  0  0  0  0  0  0  0  0
   11.1280  -23.4230    0.5150 C   0  0  0  0  0  0  0  0  0  0  0  0
   12.4270  -23.1200    1.2730 C   0  0  0  0  0  0  0  0  0  0  0  0
   13.6390  -23.2100    0.3370 C   0  0  0  0  0  0  0  0  0  0  0  0
   14.9180  -22.8150    1.0880 C   0  0  0  0  0  0  0  0  0  0  0  0
   16.1560  -22.9110    0.1780 C   0  0  0  0  0  0  0  0  0  0  0  0
   17.4510  -22.4530    0.8480 C   0  0  0  0  0  0  0  0  0  0  0  0
   17.4700  -22.0530    2.0050 O   0  0  0  0  0  0  0  0  0  0  0  0
   18.5460  -22.4550    0.0970 N   0  0  0  0  0  0  0  0  0  0  0  0
   19.8740  -22.0400    0.5910 C   0  0  2  0  0  0  0  0  0  0  0  0
   20.1610  -20.5090    0.4290 C   0  0  0  0  0  0  0  0  0  0  0  0
   21.0360  -19.9660    1.1030 O   0  0  0  0  0  0  0  0  0  0  0  0
   19.3420  -19.7520   -0.3270 N   0  0  0  0  0  0  0  0  0  0  0  0
   18.1160  -19.3190    0.3530 C   0  0  0  0  0  0  0  0  0  0  0  0
   18.0400  -17.7870    0.2510 C   0  0  2  0  0  0  0  0  0  0  0  0
   17.0240  -17.3740   -0.6450 O   0  0  0  0  0  0  0  0  0  0  0  0
   19.3990  -17.3850   -0.3140 C   0  0  0  0  0  0  0  0  0  0  0  0
   19.7630  -18.6050   -1.1560 C   0  0  1  0  0  0  0  0  0  0  0  0
   21.1900  -18.5140   -1.7740 C   0  0  0  0  0  0  0  0  0  0  0  0
   21.3090  -18.1100   -2.9270 O   0  0  0  0  0  0  0  0  0  0  0  0
   22.2640  -18.8660   -1.0700 N   0  0  0  0  0  0  0  0  0  0  0  0
   23.6180  -18.7950   -1.5740 C   0  0  1  0  0  0  0  0  0  0  0  0
   24.1400  -17.3800   -1.2950 C   0  0  0  0  0  0  0  0  0  0  0  0
   24.4360  -19.7970   -0.7710 C   0  0  0  0  0  0  0  0  0  0  0  0
   24.5160  -19.7350    0.6240 C   0  0  0  0  0  0  0  0  0  0  0  0
   25.2540  -20.6760    1.3320 C   0  0  0  0  0  0  0  0  0  0  0  0
   25.9310  -21.7030    0.6670 C   0  0  0  0  0  0  0  0  0  0  0  0
   26.6890  -22.6980    1.4150 C   0  0  0  0  0  0  0  0  0  0  0  0
   27.9810  -23.1220    1.2360 C   0  0  0  0  0  0  0  0  0  0  0  0
   28.9310  -22.5920    0.1870 C   0  0  0  0  0  0  0  0  0  0  0  0
   28.3990  -24.0940    2.0870 N   0  0  0  0  0  0  0  0  0  0  0  0
   27.4520  -24.4110    2.9230 C   0  0  0  0  0  0  0  0  0  0  0  0
   25.9810  -23.5430    2.7280 S   0  0  0  0  0  0  0  0  0  0  0  0
   25.8480  -21.7610   -0.7280 C   0  0  0  0  0  0  0  0  0  0  0  0
   25.1110  -20.8200   -1.4370 C   0  0  0  0  0  0  0  0  0  0  0  0
   20.9650  -22.9530   -0.0630 C   0  0  0  0  0  0  0  0  0  0  0  0
   22.3390  -22.7590    0.6060 C   0  0  0  0  0  0  0  0  0  0  0  0
   20.6300  -24.4520    0.1150 C   0  0  0  0  0  0  0  0  0  0  0  0
   21.1330  -22.6780   -1.5720 C   0  0  0  0  0  0  0  0  0  0  0  0
    3.5050  -21.8590    0.6640 C   0  0  0  0  0  0  0  0  0  0  0  0
    2.2120  -21.7640   -0.1840 C   0  0  0  0  0  0  0  0  0  0  0  0
   -1.2120  -21.8870    1.2730 C   0  0  0  0  0  0  0  0  0  0  0  0
   -2.5120  -21.5210    0.9300 C   0  0  0  0  0  0  0  0  0  0  0  0
   -3.5440  -21.5190    1.8700 O   0  0  0  0  0  0  0  0  0  0  0  0
   -3.3740  -21.7750    3.2820 C   0  0  0  0  0  0  0  0  0  0  0  0
   -3.6670  -18.9530   -2.1140 N   0  0  0  0  0  0  0  0  0  0  0  0
   -4.0560  -17.8590   -2.7700 C   0  0  0  0  0  0  0  0  0  0  0  0
   -5.3600  -17.3710   -2.7170 C   0  0  0  0  0  0  0  0  0  0  0  0
   -5.7460  -16.1100   -3.4730 C   0  0  0  0  0  0  0  0  0  0  0  0
   -6.0630  -15.1300   -2.6100 F   0  0  0  0  0  0  0  0  0  0  0  0
   -4.7200  -15.6800   -4.2360 F   0  0  0  0  0  0  0  0  0  0  0  0
   -6.7930  -16.3500   -4.2840 F   0  0  0  0  0  0  0  0  0  0  0  0
  -13.5050  -16.3510   -2.9270 H   0  0  0  0  0  0  0  0  0  0  0  0
  -12.4630  -17.5640   -3.7260 H   0  0  0  0  0  0  0  0  0  0  0  0
  -12.0140  -15.8330   -3.7790 H   0  0  0  0  0  0  0  0  0  0  0  0
  -11.9800  -16.2010   -1.1270 H   0  0  0  0  0  0  0  0  0  0  0  0
  -11.4670  -17.2870    0.6210 H   0  0  0  0  0  0  0  0  0  0  0  0
  -10.2330  -17.1730    2.7170 H   0  0  0  0  0  0  0  0  0  0  0  0
   -7.7850  -17.2220    2.7150 H   0  0  0  0  0  0  0  0  0  0  0  0
   -6.5610  -17.4120    0.6100 H   0  0  0  0  0  0  0  0  0  0  0  0
   -8.2080  -17.6650   -2.6740 H   0  0  0  0  0  0  0  0  0  0  0  0
   -6.5680  -19.7740   -0.6810 H   0  0  0  0  0  0  0  0  0  0  0  0
   -4.8170  -21.0710    0.0440 H   0  0  0  0  0  0  0  0  0  0  0  0
   -2.0680  -20.9140   -2.3650 H   0  0  0  0  0  0  0  0  0  0  0  0
    0.2110  -21.5560   -1.7870 H   0  0  0  0  0  0  0  0  0  0  0  0
    0.4450  -23.9120    1.7920 H   0  0  0  0  0  0  0  0  0  0  0  0
    1.3150  -24.3000    0.2740 H   0  0  0  0  0  0  0  0  0  0  0  0
    2.7150  -24.7350    2.2730 H   0  0  0  0  0  0  0  0  0  0  0  0
    2.4880  -23.0220    2.7720 H   0  0  0  0  0  0  0  0  0  0  0  0
    3.7810  -23.8950    0.2400 H   0  0  0  0  0  0  0  0  0  0  0  0
    5.0990  -22.4730    2.4390 H   0  0  0  0  0  0  0  0  0  0  0  0
    4.9620  -24.2680    2.4740 H   0  0  0  0  0  0  0  0  0  0  0  0
    6.0370  -24.4690    0.3170 H   0  0  0  0  0  0  0  0  0  0  0  0
    6.0850  -22.6950    0.1100 H   0  0  0  0  0  0  0  0  0  0  0  0
    7.4600  -22.4880    2.1750 H   0  0  0  0  0  0  0  0  0  0  0  0
    7.4580  -24.2570    2.3570 H   0  0  0  0  0  0  0  0  0  0  0  0
    8.6240  -24.5130    0.2050 H   0  0  0  0  0  0  0  0  0  0  0  0
    8.5390  -22.7630   -0.0810 H   0  0  0  0  0  0  0  0  0  0  0  0
    9.9160  -22.3540    1.9410 H   0  0  0  0  0  0  0  0  0  0  0  0
   10.0160  -24.1020    2.2340 H   0  0  0  0  0  0  0  0  0  0  0  0
   11.0090  -22.6990   -0.2930 H   0  0  0  0  0  0  0  0  0  0  0  0
   11.1810  -24.4250    0.0860 H   0  0  0  0  0  0  0  0  0  0  0  0
   12.5480  -23.8340    2.0910 H   0  0  0  0  0  0  0  0  0  0  0  0
   12.3700  -22.1140    1.6940 H   0  0  0  0  0  0  0  0  0  0  0  0
   13.4930  -22.5350   -0.5090 H   0  0  0  0  0  0  0  0  0  0  0  0
   13.7320  -24.2310   -0.0370 H   0  0  0  0  0  0  0  0  0  0  0  0
   15.0560  -23.4720    1.9490 H   0  0  0  0  0  0  0  0  0  0  0  0
   14.8220  -21.7900    1.4510 H   0  0  0  0  0  0  0  0  0  0  0  0
   15.9980  -22.2940   -0.7060 H   0  0  0  0  0  0  0  0  0  0  0  0
   16.2860  -23.9450   -0.1410 H   0  0  0  0  0  0  0  0  0  0  0  0
   18.4890  -22.7590   -0.8580 H   0  0  0  0  0  0  0  0  0  0  0  0
   19.9090  -22.2320    1.6650 H   0  0  0  0  0  0  0  0  0  0  0  0
   17.2370  -19.7690   -0.1110 H   0  0  0  0  0  0  0  0  0  0  0  0
   18.1350  -19.5950    1.4100 H   0  0  0  0  0  0  0  0  0  0  0  0
   17.8780  -17.3390    1.2340 H   0  0  0  0  0  0  0  0  0  0  0  0
   17.1890  -17.7400   -1.5180 H   0  0  0  0  0  0  0  0  0  0  0  0
   19.3450  -16.4770   -0.9170 H   0  0  0  0  0  0  0  0  0  0  0  0
   20.1200  -17.2680    0.4960 H   0  0  0  0  0  0  0  0  0  0  0  0
   19.1020  -18.6020   -2.0240 H   0  0  0  0  0  0  0  0  0  0  0  0
   22.1230  -19.2150   -0.1280 H   0  0  0  0  0  0  0  0  0  0  0  0
   23.6640  -19.0160   -2.6350 H   0  0  0  0  0  0  0  0  0  0  0  0
   24.0060  -17.1340   -0.2420 H   0  0  0  0  0  0  0  0  0  0  0  0
   23.5750  -16.6860   -1.9170 H   0  0  0  0  0  0  0  0  0  0  0  0
   25.1950  -17.3500   -1.5640 H   0  0  0  0  0  0  0  0  0  0  0  0
   24.0030  -18.9740    1.1550 H   0  0  0  0  0  0  0  0  0  0  0  0
   25.3020  -20.6170    2.3890 H   0  0  0  0  0  0  0  0  0  0  0  0
   28.6810  -21.5530   -0.0250 H   0  0  0  0  0  0  0  0  0  0  0  0
   28.8280  -23.2120   -0.7020 H   0  0  0  0  0  0  0  0  0  0  0  0
   29.9440  -22.6620    0.5830 H   0  0  0  0  0  0  0  0  0  0  0  0
   27.5390  -25.1440    3.6840 H   0  0  0  0  0  0  0  0  0  0  0  0
   26.3440  -22.5390   -1.2480 H   0  0  0  0  0  0  0  0  0  0  0  0
   25.0580  -20.8880   -2.4940 H   0  0  0  0  0  0  0  0  0  0  0  0
   23.0730  -23.4550    0.1980 H   0  0  0  0  0  0  0  0  0  0  0  0
   22.2660  -22.9170    1.6820 H   0  0  0  0  0  0  0  0  0  0  0  0
   22.7070  -21.7520    0.4260 H   0  0  0  0  0  0  0  0  0  0  0  0
   21.4450  -25.0740   -0.2590 H   0  0  0  0  0  0  0  0  0  0  0  0
   19.7270  -24.7190   -0.4340 H   0  0  0  0  0  0  0  0  0  0  0  0
   20.4760  -24.6760    1.1710 H   0  0  0  0  0  0  0  0  0  0  0  0
   21.8890  -23.3430   -1.9930 H   0  0  0  0  0  0  0  0  0  0  0  0
   21.4580  -21.6500   -1.7370 H   0  0  0  0  0  0  0  0  0  0  0  0
   20.1950  -22.8410   -2.1010 H   0  0  0  0  0  0  0  0  0  0  0  0
    3.3570  -21.2510    1.5490 H   0  0  0  0  0  0  0  0  0  0  0  0
    4.3280  -21.5020    0.0570 H   0  0  0  0  0  0  0  0  0  0  0  0
    2.3040  -22.3920   -1.0610 H   0  0  0  0  0  0  0  0  0  0  0  0
    2.0540  -20.7220   -0.4330 H   0  0  0  0  0  0  0  0  0  0  0  0
   -0.9680  -22.1440    2.2670 H   0  0  0  0  0  0  0  0  0  0  0  0
   -4.3470  -21.6610    3.7610 H   0  0  0  0  0  0  0  0  0  0  0  0
   -2.6670  -21.0460    3.6810 H   0  0  0  0  0  0  0  0  0  0  0  0
   -3.0070  -22.7940    3.4060 H   0  0  0  0  0  0  0  0  0  0  0  0
   -3.3130  -17.3620   -3.3440 H   0  0  0  0  0  0  0  0  0  0  0  0
  1  2  1  0  0  0  0
  1 80  1  0  0  0  0
  1 81  1  0  0  0  0
  1 82  1  0  0  0  0
  2  3  1  0  0  0  0
  2 83  1  0  0  0  0
  3  4  2  0  0  0  0
  3  5  1  0  0  0  0
  5  6  1  0  0  0  0
  5 10  2  0  0  0  0
  6  7  2  0  0  0  0
  6 84  1  0  0  0  0
  7  8  1  0  0  0  0
  7 85  1  0  0  0  0
  8  9  2  0  0  0  0
  8 86  1  0  0  0  0
  9 10  1  0  0  0  0
  9 87  1  0  0  0  0
 10 11  1  0  0  0  0
 11 12  1  0  0  0  0
 11 88  1  0  0  0  0
 12 13  1  0  0  0  0
 12 75  2  0  0  0  0
 13 14  2  0  0  0  0
 13 89  1  0  0  0  0
 14 15  1  0  0  0  0
 14 73  1  0  0  0  0
 15 16  1  0  0  0  0
 15 90  1  0  0  0  0
 16 17  1  0  0  0  0
 16 70  2  0  0  0  0
 17 18  2  0  0  0  0
 17 91  1  0  0  0  0
 18 19  1  0  0  0  0
 18 92  1  0  0  0  0
 19 20  1  0  0  0  0
 19 69  2  0  0  0  0
 20 21  1  0  0  0  0
 20 68  1  0  0  0  0
 21 22  1  0  0  0  0
 21 93  1  0  0  0  0
 21 94  1  0  0  0  0
 22 23  1  0  0  0  0
 22 95  1  0  0  0  0
 22 96  1  0  0  0  0
 23 24  1  0  0  0  0
 23 67  1  0  0  0  0
 23 97  1  0  0  0  0
 24 25  1  0  0  0  0
 24 98  1  0  0  0  0
 24 99  1  0  0  0  0
 25 26  1  0  0  0  0
 25100  1  0  0  0  0
 25101  1  0  0  0  0
 26 27  1  0  0  0  0
 26102  1  0  0  0  0
 26103  1  0  0  0  0
 27 28  1  0  0  0  0
 27104  1  0  0  0  0
 27105  1  0  0  0  0
 28 29  1  0  0  0  0
 28106  1  0  0  0  0
 28107  1  0  0  0  0
 29 30  1  0  0  0  0
 29108  1  0  0  0  0
 29109  1  0  0  0  0
 30 31  1  0  0  0  0
 30110  1  0  0  0  0
 30111  1  0  0  0  0
 31 32  1  0  0  0  0
 31112  1  0  0  0  0
 31113  1  0  0  0  0
 32 33  1  0  0  0  0
 32114  1  0  0  0  0
 32115  1  0  0  0  0
 33 34  1  0  0  0  0
 33116  1  0  0  0  0
 33117  1  0  0  0  0
 34 35  2  0  0  0  0
 34 36  1  0  0  0  0
 36 37  1  0  0  0  0
 36118  1  0  0  0  0
 37 38  1  0  0  0  0
 37 63  1  0  0  0  0
 37119  1  0  0  0  0
 38 39  2  0  0  0  0
 38 40  1  0  0  0  0
 40 41  1  0  0  0  0
 40 45  1  0  0  0  0
 41 42  1  0  0  0  0
 41120  1  0  0  0  0
 41121  1  0  0  0  0
 42 43  1  0  0  0  0
 42 44  1  0  0  0  0
 42122  1  0  0  0  0
 43123  1  0  0  0  0
 44 45  1  0  0  0  0
 44124  1  0  0  0  0
 44125  1  0  0  0  0
 45 46  1  0  0  0  0
 45126  1  0  0  0  0
 46 47  2  0  0  0  0
 46 48  1  0  0  0  0
 48 49  1  0  0  0  0
 48127  1  0  0  0  0
 49 50  1  0  0  0  0
 49 51  1  0  0  0  0
 49128  1  0  0  0  0
 50129  1  0  0  0  0
 50130  1  0  0  0  0
 50131  1  0  0  0  0
 51 52  1  0  0  0  0
 51 62  2  0  0  0  0
 52 53  2  0  0  0  0
 52132  1  0  0  0  0
 53 54  1  0  0  0  0
 53133  1  0  0  0  0
 54 55  1  0  0  0  0
 54 61  2  0  0  0  0
 55 56  2  0  0  0  0
 55 60  1  0  0  0  0
 56 57  1  0  0  0  0
 56 58  1  0  0  0  0
 57134  1  0  0  0  0
 57135  1  0  0  0  0
 57136  1  0  0  0  0
 58 59  2  0  0  0  0
 59 60  1  0  0  0  0
 59137  1  0  0  0  0
 61 62  1  0  0  0  0
 61138  1  0  0  0  0
 62139  1  0  0  0  0
 63 64  1  0  0  0  0
 63 65  1  0  0  0  0
 63 66  1  0  0  0  0
 64140  1  0  0  0  0
 64141  1  0  0  0  0
 64142  1  0  0  0  0
 65143  1  0  0  0  0
 65144  1  0  0  0  0
 65145  1  0  0  0  0
 66146  1  0  0  0  0
 66147  1  0  0  0  0
 66148  1  0  0  0  0
 67 68  1  0  0  0  0
 67149  1  0  0  0  0
 67150  1  0  0  0  0
 68151  1  0  0  0  0
 68152  1  0  0  0  0
 69 70  1  0  0  0  0
 69153  1  0  0  0  0
 70 71  1  0  0  0  0
 71 72  1  0  0  0  0
 72154  1  0  0  0  0
 72155  1  0  0  0  0
 72156  1  0  0  0  0
 73 74  2  0  0  0  0
 74 75  1  0  0  0  0
 74157  1  0  0  0  0
 75 76  1  0  0  0  0
 76 77  1  0  0  0  0
 76 78  1  0  0  0  0
 76 79  1  0  0  0  0
M  CHG  1  23   1
M  END
>  <Compound ID>
2888

>  <Uniprot>
Q05397

>  <Target>
FAK

>  <E3 ligase>
VHL

>  <DC50 (nM)>
20

>  <Assay (DC50/Dmax)>
Degradation of FAK in A549 cells after 24 h treatment

>  <IC50 (nM, Protac to Target)>
7.9400001

>  <Assay (Protac to Target, IC50)>
IC50 was assessed by FRET

>  <Article DOI>
10.1002/anie.202109237

>  <Molecular Weight>
1111.39

>  <Exact Mass>
1110.5701

>  <XLogP3>
11.09

>  <Heavy Atom Count>
79

>  <Ring Count>
7

>  <Hydrogen Bond Acceptor Count>
13

>  <Hydrogen Bond Donor Count>
6

>  <Rotatable Bond Count>
24

>  <Topological Polar Surface Area>
193.39

>  <Molecular Formula>
C59H77F3N10O6S

>  <InChI>
InChI=1S/C59H77F3N10O6S/c1-38(40-21-23-41(24-22-40)53-39(2)65-37-79-53)66-56(76)49-33-43(73)36-72(49)57(77)54(58(3,4)5)69-52(74)20-14-12-10-8-9-11-13-17-27-70-28-30-71(31-29-70)42-25-26-47(50(32-42)78-7)68-51-34-48(45(35-64-51)59(60,61)62)67-46-19-16-15-18-44(46)55(75)63-6/h15-16,18-19,21-26,32,34-35,37-38,43,49,54,73H,8-14,17,20,27-31,33,36H2,1-7H3,(H,63,75)(H,66,76)(H,69,74)(H2,64,67,68)/t38-,43+,49-,54+/m0/s1

>  <InChI Key>
LCSUSCWWBGDOAP-JJVMVOSYSA-N

>  <IC50 (nM, Protac to E3)>
1995.3

>  <Assay (Protac to E3, IC50)>
PF

>  <IC50 (nM, Ternary complex)>
2

>  <Assay (Ternary complex, IC50)>
IC50 between VHL and the complex of protac and FAK was tested by FRET

$$$$
2889
  MOE2022           3D

144150  0  0  1  0  0  0  0  0999 V2000
   28.7150   16.5960    1.3670 C   0  0  0  0  0  0  0  0  0  0  0  0
   27.8590   15.6800    0.6010 N   0  0  0  0  0  0  0  0  0  0  0  0
   26.4900   15.7900    0.5710 C   0  0  0  0  0  0  0  0  0  0  0  0
   25.9950   16.6740    1.2690 O   0  0  0  0  0  0  0  0  0  0  0  0
   25.7200   14.8850   -0.2920 C   0  0  0  0  0  0  0  0  0  0  0  0
   26.2510   13.6370   -0.6700 C   0  0  0  0  0  0  0  0  0  0  0  0
   25.5630   12.7950   -1.5340 C   0  0  0  0  0  0  0  0  0  0  0  0
   24.3240   13.1760   -2.0440 C   0  0  0  0  0  0  0  0  0  0  0  0
   23.7610   14.3890   -1.6750 C   0  0  0  0  0  0  0  0  0  0  0  0
   24.4380   15.2290   -0.7820 C   0  0  0  0  0  0  0  0  0  0  0  0
   23.8370   16.4420   -0.3860 N   0  0  0  0  0  0  0  0  0  0  0  0
   22.4660   16.7320   -0.4500 C   0  0  0  0  0  0  0  0  0  0  0  0
   21.5530   15.8070    0.0360 C   0  0  0  0  0  0  0  0  0  0  0  0
   20.1980   16.1090   -0.0380 C   0  0  0  0  0  0  0  0  0  0  0  0
   19.2880   15.1640    0.4270 N   0  0  0  0  0  0  0  0  0  0  0  0
   17.8690   15.2290    0.4460 C   0  0  0  0  0  0  0  0  0  0  0  0
   17.1780   16.4070    0.7320 C   0  0  0  0  0  0  0  0  0  0  0  0
   15.7860   16.4080    0.7600 C   0  0  0  0  0  0  0  0  0  0  0  0
   15.0760   15.2220    0.5140 C   0  0  0  0  0  0  0  0  0  0  0  0
   13.6570   15.1750    0.5480 N   0  0  0  0  0  0  0  0  0  0  0  0
   13.1290   14.3330    1.6500 C   0  0  0  0  0  0  0  0  0  0  0  0
   11.6450   14.0280    1.3130 C   0  0  0  0  0  0  0  0  0  0  0  0
   10.8850   15.3220    1.2240 N   0  3  0  0  0  0  0  0  0  0  0  0
    9.4730   14.9700    0.9240 C   0  0  0  0  0  0  0  0  0  0  0  0
    8.5830   16.1860    1.2300 C   0  0  0  0  0  0  0  0  0  0  0  0
    7.2740   15.7090    0.9890 O   0  0  0  0  0  0  0  0  0  0  0  0
    6.2750   16.6960    1.2190 C   0  0  0  0  0  0  0  0  0  0  0  0
    4.9010   16.1110    0.9040 C   0  0  0  0  0  0  0  0  0  0  0  0
    3.9810   17.2000    1.1400 O   0  0  0  0  0  0  0  0  0  0  0  0
    2.6110   17.0470    0.5920 C   0  0  0  0  0  0  0  0  0  0  0  0
    2.0510   18.4420    0.3430 C   0  0  0  0  0  0  0  0  0  0  0  0
    1.2560   18.6780   -0.5620 O   0  0  0  0  0  0  0  0  0  0  0  0
    2.4680   19.4160    1.1450 N   0  0  0  0  0  0  0  0  0  0  0  0
    2.1930   20.8370    0.9020 C   0  0  2  0  0  0  0  0  0  0  0  0
    2.7810   21.2890   -0.4740 C   0  0  0  0  0  0  0  0  0  0  0  0
    3.9300   20.9660   -0.7810 O   0  0  0  0  0  0  0  0  0  0  0  0
    2.0470   22.0190   -1.3410 N   0  0  0  0  0  0  0  0  0  0  0  0
    2.5670   22.4560   -2.6340 C   0  0  0  0  0  0  0  0  0  0  0  0
    1.9020   23.8080   -2.9330 C   0  0  2  0  0  0  0  0  0  0  0  0
    2.8460   24.8570   -3.0160 O   0  0  0  0  0  0  0  0  0  0  0  0
    0.9840   24.0620   -1.7340 C   0  0  0  0  0  0  0  0  0  0  0  0
    0.7480   22.6690   -1.1410 C   0  0  1  0  0  0  0  0  0  0  0  0
   -0.4750   21.9280   -1.7610 C   0  0  0  0  0  0  0  0  0  0  0  0
   -1.4580   22.5730   -2.1210 O   0  0  0  0  0  0  0  0  0  0  0  0
   -0.4280   20.6050   -1.9430 N   0  0  0  0  0  0  0  0  0  0  0  0
   -1.5680   19.8700   -2.4560 C   0  0  1  0  0  0  0  0  0  0  0  0
   -1.0240   18.6310   -3.1790 C   0  0  0  0  0  0  0  0  0  0  0  0
   -2.4390   19.4740   -1.2660 C   0  0  0  0  0  0  0  0  0  0  0  0
   -3.6530   20.1360   -1.0790 C   0  0  0  0  0  0  0  0  0  0  0  0
   -4.4790   19.8170   -0.0070 C   0  0  0  0  0  0  0  0  0  0  0  0
   -4.1110   18.8270    0.9110 C   0  0  0  0  0  0  0  0  0  0  0  0
   -4.9760   18.4860    2.0340 C   0  0  0  0  0  0  0  0  0  0  0  0
   -6.3150   18.1880    2.0400 C   0  0  0  0  0  0  0  0  0  0  0  0
   -7.1950   18.1270    0.8140 C   0  0  0  0  0  0  0  0  0  0  0  0
   -6.8500   17.9350    3.2620 N   0  0  0  0  0  0  0  0  0  0  0  0
   -5.9400   18.0220    4.1890 C   0  0  0  0  0  0  0  0  0  0  0  0
   -4.3630   18.4180    3.6340 S   0  0  0  0  0  0  0  0  0  0  0  0
   -2.8860   18.1780    0.7310 C   0  0  0  0  0  0  0  0  0  0  0  0
   -2.0610   18.4970   -0.3410 C   0  0  0  0  0  0  0  0  0  0  0  0
    2.6960   21.6890    2.1170 C   0  0  0  0  0  0  0  0  0  0  0  0
    4.2160   21.5560    2.3600 C   0  0  0  0  0  0  0  0  0  0  0  0
    1.9780   21.2520    3.4120 C   0  0  0  0  0  0  0  0  0  0  0  0
    2.3940   23.1910    1.9400 C   0  0  0  0  0  0  0  0  0  0  0  0
   11.4530   16.0990    0.0610 C   0  0  0  0  0  0  0  0  0  0  0  0
   12.9310   16.4570    0.3740 C   0  0  0  0  0  0  0  0  0  0  0  0
   15.7660   14.0380    0.2310 C   0  0  0  0  0  0  0  0  0  0  0  0
   17.1590   14.0440    0.2060 C   0  0  0  0  0  0  0  0  0  0  0  0
   17.8890   12.8810   -0.0500 O   0  0  0  0  0  0  0  0  0  0  0  0
   17.3180   11.6250   -0.4770 C   0  0  0  0  0  0  0  0  0  0  0  0
   19.7500   17.2580   -0.5540 N   0  0  0  0  0  0  0  0  0  0  0  0
   20.6280   18.1530   -1.0110 C   0  0  0  0  0  0  0  0  0  0  0  0
   22.0060   17.9430   -0.9800 C   0  0  0  0  0  0  0  0  0  0  0  0
   22.9600   18.9930   -1.5270 C   0  0  0  0  0  0  0  0  0  0  0  0
   23.8610   19.3400   -0.5900 F   0  0  0  0  0  0  0  0  0  0  0  0
   23.5990   18.5190   -2.6110 F   0  0  0  0  0  0  0  0  0  0  0  0
   22.2870   20.1040   -1.8900 F   0  0  0  0  0  0  0  0  0  0  0  0
   29.7060   16.1510    1.4660 H   0  0  0  0  0  0  0  0  0  0  0  0
   28.2750   16.7490    2.3560 H   0  0  0  0  0  0  0  0  0  0  0  0
   28.7720   17.5460    0.8330 H   0  0  0  0  0  0  0  0  0  0  0  0
   28.3040   15.0750   -0.1010 H   0  0  0  0  0  0  0  0  0  0  0  0
   27.1880   13.3240   -0.2880 H   0  0  0  0  0  0  0  0  0  0  0  0
   25.9810   11.8590   -1.8110 H   0  0  0  0  0  0  0  0  0  0  0  0
   23.8090   12.5350   -2.7160 H   0  0  0  0  0  0  0  0  0  0  0  0
   22.8240   14.6780   -2.0750 H   0  0  0  0  0  0  0  0  0  0  0  0
   24.4280   17.0350    0.2440 H   0  0  0  0  0  0  0  0  0  0  0  0
   21.8800   14.8960    0.4590 H   0  0  0  0  0  0  0  0  0  0  0  0
   19.6470   14.2020    0.4750 H   0  0  0  0  0  0  0  0  0  0  0  0
   17.7140   17.2970    0.9350 H   0  0  0  0  0  0  0  0  0  0  0  0
   15.2810   17.3080    0.9840 H   0  0  0  0  0  0  0  0  0  0  0  0
   13.6590   13.3900    1.6890 H   0  0  0  0  0  0  0  0  0  0  0  0
   13.1900   14.8670    2.5890 H   0  0  0  0  0  0  0  0  0  0  0  0
   11.2420   13.4110    2.1080 H   0  0  0  0  0  0  0  0  0  0  0  0
   11.6280   13.5210    0.3550 H   0  0  0  0  0  0  0  0  0  0  0  0
   10.9730   15.8380    2.0910 H   0  0  0  0  0  0  0  0  0  0  0  0
    9.3500   14.7090   -0.1210 H   0  0  0  0  0  0  0  0  0  0  0  0
    9.1400   14.1690    1.5750 H   0  0  0  0  0  0  0  0  0  0  0  0
    8.8130   17.0170    0.5610 H   0  0  0  0  0  0  0  0  0  0  0  0
    8.6910   16.4860    2.2740 H   0  0  0  0  0  0  0  0  0  0  0  0
    6.2860   17.0200    2.2610 H   0  0  0  0  0  0  0  0  0  0  0  0
    6.4360   17.5620    0.5730 H   0  0  0  0  0  0  0  0  0  0  0  0
    4.6860   15.2720    1.5680 H   0  0  0  0  0  0  0  0  0  0  0  0
    4.8710   15.7940   -0.1390 H   0  0  0  0  0  0  0  0  0  0  0  0
    2.6360   16.5290   -0.3570 H   0  0  0  0  0  0  0  0  0  0  0  0
    1.9890   16.5620    1.3310 H   0  0  0  0  0  0  0  0  0  0  0  0
    3.2240   19.1780    1.7680 H   0  0  0  0  0  0  0  0  0  0  0  0
    1.1110   20.9430    0.8520 H   0  0  0  0  0  0  0  0  0  0  0  0
    3.6530   22.5710   -2.6100 H   0  0  0  0  0  0  0  0  0  0  0  0
    2.3000   21.7330   -3.4060 H   0  0  0  0  0  0  0  0  0  0  0  0
    1.3160   23.7360   -3.8520 H   0  0  0  0  0  0  0  0  0  0  0  0
    3.4210   24.8190   -2.2460 H   0  0  0  0  0  0  0  0  0  0  0  0
    1.4940   24.6790   -0.9940 H   0  0  0  0  0  0  0  0  0  0  0  0
    0.0590   24.5500   -2.0410 H   0  0  0  0  0  0  0  0  0  0  0  0
    0.5260   22.7850   -0.0830 H   0  0  0  0  0  0  0  0  0  0  0  0
    0.3510   20.0690   -1.5710 H   0  0  0  0  0  0  0  0  0  0  0  0
   -2.1430   20.4630   -3.1570 H   0  0  0  0  0  0  0  0  0  0  0  0
   -0.3620   18.0670   -2.5250 H   0  0  0  0  0  0  0  0  0  0  0  0
   -0.4750   18.9730   -4.0550 H   0  0  0  0  0  0  0  0  0  0  0  0
   -1.8740   18.0190   -3.4820 H   0  0  0  0  0  0  0  0  0  0  0  0
   -3.9460   20.8990   -1.7550 H   0  0  0  0  0  0  0  0  0  0  0  0
   -5.3920   20.3370    0.1240 H   0  0  0  0  0  0  0  0  0  0  0  0
   -6.5900   17.8320   -0.0420 H   0  0  0  0  0  0  0  0  0  0  0  0
   -7.6330   19.1130    0.6660 H   0  0  0  0  0  0  0  0  0  0  0  0
   -7.9750   17.3870    0.9960 H   0  0  0  0  0  0  0  0  0  0  0  0
   -6.1150   17.8660    5.2230 H   0  0  0  0  0  0  0  0  0  0  0  0
   -2.5850   17.4330    1.4210 H   0  0  0  0  0  0  0  0  0  0  0  0
   -1.1380   17.9910   -0.4480 H   0  0  0  0  0  0  0  0  0  0  0  0
    4.5140   22.1380    3.2320 H   0  0  0  0  0  0  0  0  0  0  0  0
    4.7720   21.9240    1.4970 H   0  0  0  0  0  0  0  0  0  0  0  0
    4.4920   20.5160    2.5320 H   0  0  0  0  0  0  0  0  0  0  0  0
    2.2770   21.8880    4.2470 H   0  0  0  0  0  0  0  0  0  0  0  0
    2.2300   20.2220    3.6650 H   0  0  0  0  0  0  0  0  0  0  0  0
    0.8970   21.3250    3.2870 H   0  0  0  0  0  0  0  0  0  0  0  0
    2.7730   23.7550    2.7950 H   0  0  0  0  0  0  0  0  0  0  0  0
    1.3190   23.3590    1.8790 H   0  0  0  0  0  0  0  0  0  0  0  0
    2.8770   23.5770    1.0420 H   0  0  0  0  0  0  0  0  0  0  0  0
   11.4500   15.4870   -0.8330 H   0  0  0  0  0  0  0  0  0  0  0  0
   10.9090   17.0260   -0.0760 H   0  0  0  0  0  0  0  0  0  0  0  0
   12.9770   17.0450    1.2810 H   0  0  0  0  0  0  0  0  0  0  0  0
   13.3360   16.9820   -0.4830 H   0  0  0  0  0  0  0  0  0  0  0  0
   15.2260   13.1550    0.0270 H   0  0  0  0  0  0  0  0  0  0  0  0
   18.1380   10.9290   -0.6550 H   0  0  0  0  0  0  0  0  0  0  0  0
   16.7600   11.7980   -1.3980 H   0  0  0  0  0  0  0  0  0  0  0  0
   16.6690   11.2530    0.3160 H   0  0  0  0  0  0  0  0  0  0  0  0
   20.2240   19.0490   -1.4100 H   0  0  0  0  0  0  0  0  0  0  0  0
  1  2  1  0  0  0  0
  1 77  1  0  0  0  0
  1 78  1  0  0  0  0
  1 79  1  0  0  0  0
  2  3  1  0  0  0  0
  2 80  1  0  0  0  0
  3  4  2  0  0  0  0
  3  5  1  0  0  0  0
  5  6  1  0  0  0  0
  5 10  2  0  0  0  0
  6  7  2  0  0  0  0
  6 81  1  0  0  0  0
  7  8  1  0  0  0  0
  7 82  1  0  0  0  0
  8  9  2  0  0  0  0
  8 83  1  0  0  0  0
  9 10  1  0  0  0  0
  9 84  1  0  0  0  0
 10 11  1  0  0  0  0
 11 12  1  0  0  0  0
 11 85  1  0  0  0  0
 12 13  1  0  0  0  0
 12 72  2  0  0  0  0
 13 14  2  0  0  0  0
 13 86  1  0  0  0  0
 14 15  1  0  0  0  0
 14 70  1  0  0  0  0
 15 16  1  0  0  0  0
 15 87  1  0  0  0  0
 16 17  1  0  0  0  0
 16 67  2  0  0  0  0
 17 18  2  0  0  0  0
 17 88  1  0  0  0  0
 18 19  1  0  0  0  0
 18 89  1  0  0  0  0
 19 20  1  0  0  0  0
 19 66  2  0  0  0  0
 20 21  1  0  0  0  0
 20 65  1  0  0  0  0
 21 22  1  0  0  0  0
 21 90  1  0  0  0  0
 21 91  1  0  0  0  0
 22 23  1  0  0  0  0
 22 92  1  0  0  0  0
 22 93  1  0  0  0  0
 23 24  1  0  0  0  0
 23 64  1  0  0  0  0
 23 94  1  0  0  0  0
 24 25  1  0  0  0  0
 24 95  1  0  0  0  0
 24 96  1  0  0  0  0
 25 26  1  0  0  0  0
 25 97  1  0  0  0  0
 25 98  1  0  0  0  0
 26 27  1  0  0  0  0
 27 28  1  0  0  0  0
 27 99  1  0  0  0  0
 27100  1  0  0  0  0
 28 29  1  0  0  0  0
 28101  1  0  0  0  0
 28102  1  0  0  0  0
 29 30  1  0  0  0  0
 30 31  1  0  0  0  0
 30103  1  0  0  0  0
 30104  1  0  0  0  0
 31 32  2  0  0  0  0
 31 33  1  0  0  0  0
 33 34  1  0  0  0  0
 33105  1  0  0  0  0
 34 35  1  0  0  0  0
 34 60  1  0  0  0  0
 34106  1  0  0  0  0
 35 36  2  0  0  0  0
 35 37  1  0  0  0  0
 37 38  1  0  0  0  0
 37 42  1  0  0  0  0
 38 39  1  0  0  0  0
 38107  1  0  0  0  0
 38108  1  0  0  0  0
 39 40  1  0  0  0  0
 39 41  1  0  0  0  0
 39109  1  0  0  0  0
 40110  1  0  0  0  0
 41 42  1  0  0  0  0
 41111  1  0  0  0  0
 41112  1  0  0  0  0
 42 43  1  0  0  0  0
 42113  1  0  0  0  0
 43 44  2  0  0  0  0
 43 45  1  0  0  0  0
 45 46  1  0  0  0  0
 45114  1  0  0  0  0
 46 47  1  0  0  0  0
 46 48  1  0  0  0  0
 46115  1  0  0  0  0
 47116  1  0  0  0  0
 47117  1  0  0  0  0
 47118  1  0  0  0  0
 48 49  1  0  0  0  0
 48 59  2  0  0  0  0
 49 50  2  0  0  0  0
 49119  1  0  0  0  0
 50 51  1  0  0  0  0
 50120  1  0  0  0  0
 51 52  1  0  0  0  0
 51 58  2  0  0  0  0
 52 53  2  0  0  0  0
 52 57  1  0  0  0  0
 53 54  1  0  0  0  0
 53 55  1  0  0  0  0
 54121  1  0  0  0  0
 54122  1  0  0  0  0
 54123  1  0  0  0  0
 55 56  2  0  0  0  0
 56 57  1  0  0  0  0
 56124  1  0  0  0  0
 58 59  1  0  0  0  0
 58125  1  0  0  0  0
 59126  1  0  0  0  0
 60 61  1  0  0  0  0
 60 62  1  0  0  0  0
 60 63  1  0  0  0  0
 61127  1  0  0  0  0
 61128  1  0  0  0  0
 61129  1  0  0  0  0
 62130  1  0  0  0  0
 62131  1  0  0  0  0
 62132  1  0  0  0  0
 63133  1  0  0  0  0
 63134  1  0  0  0  0
 63135  1  0  0  0  0
 64 65  1  0  0  0  0
 64136  1  0  0  0  0
 64137  1  0  0  0  0
 65138  1  0  0  0  0
 65139  1  0  0  0  0
 66 67  1  0  0  0  0
 66140  1  0  0  0  0
 67 68  1  0  0  0  0
 68 69  1  0  0  0  0
 69141  1  0  0  0  0
 69142  1  0  0  0  0
 69143  1  0  0  0  0
 70 71  2  0  0  0  0
 71 72  1  0  0  0  0
 71144  1  0  0  0  0
 72 73  1  0  0  0  0
 73 74  1  0  0  0  0
 73 75  1  0  0  0  0
 73 76  1  0  0  0  0
M  CHG  1  23   1
M  END
>  <Compound ID>
2889

>  <Uniprot>
Q05397

>  <Target>
FAK

>  <E3 ligase>
VHL

>  <DC50 (nM)>
158.5 

>  <Assay (DC50/Dmax)>
Degradation of FAK in A549 cells after 24 h treatment

>  <IC50 (nM, Protac to Target)>
1

>  <Assay (Protac to Target, IC50)>
IC50 was assessed by FRET

>  <Article DOI>
10.1002/anie.202109237

>  <Molecular Weight>
1073.2531

>  <Exact Mass>
1072.4816

>  <XLogP3>
7.1100001

>  <Heavy Atom Count>
76

>  <Ring Count>
7

>  <Hydrogen Bond Acceptor Count>
15

>  <Hydrogen Bond Donor Count>
6

>  <Rotatable Bond Count>
21

>  <Topological Polar Surface Area>
211.85001

>  <Molecular Formula>
C54H67F3N10O8S

>  <InChI>
InChI=1S/C54H67F3N10O8S/c1-33(35-12-14-36(15-13-35)48-34(2)60-32-76-48)61-51(71)44-27-38(68)30-67(44)52(72)49(53(3,4)5)64-47(69)31-75-25-24-74-23-22-65-18-20-66(21-19-65)37-16-17-42(45(26-37)73-7)63-46-28-43(40(29-59-46)54(55,56)57)62-41-11-9-8-10-39(41)50(70)58-6/h8-17,26,28-29,32-33,38,44,49,68H,18-25,27,30-31H2,1-7H3,(H,58,70)(H,61,71)(H,64,69)(H2,59,62,63)/t33-,38+,44-,49+/m0/s1

>  <InChI Key>
RDCVMTUYWQXPEC-FSHOLZCKSA-N

>  <IC50 (nM, Protac to E3)>
501.20001

>  <Assay (Protac to E3, IC50)>
PF

>  <IC50 (nM, Ternary complex)>
7.9400001

>  <Assay (Ternary complex, IC50)>
IC50 between VHL and the complex of protac and FAK was tested by FRET

$$$$
2890
  MOE2022           3D

137143  0  0  1  0  0  0  0  0999 V2000
   -0.6450   12.9170   -2.8370 C   0  0  0  0  0  0  0  0  0  0  0  0
    0.3620   13.4660   -1.9200 N   0  0  0  0  0  0  0  0  0  0  0  0
    1.6070   12.9070   -1.7610 C   0  0  0  0  0  0  0  0  0  0  0  0
    1.8680   11.9370   -2.4700 O   0  0  0  0  0  0  0  0  0  0  0  0
    2.5210   13.4750   -0.7610 C   0  0  0  0  0  0  0  0  0  0  0  0
    2.3960   14.8190   -0.3620 C   0  0  0  0  0  0  0  0  0  0  0  0
    3.2170   15.3560    0.6220 C   0  0  0  0  0  0  0  0  0  0  0  0
    4.1870   14.5640    1.2340 C   0  0  0  0  0  0  0  0  0  0  0  0
    4.3500   13.2410    0.8510 C   0  0  0  0  0  0  0  0  0  0  0  0
    3.5420   12.7020   -0.1580 C   0  0  0  0  0  0  0  0  0  0  0  0
    3.7360   11.3650   -0.5610 N   0  0  0  0  0  0  0  0  0  0  0  0
    4.8850   10.6000   -0.3160 C   0  0  0  0  0  0  0  0  0  0  0  0
    6.1260   11.1130   -0.6650 C   0  0  0  0  0  0  0  0  0  0  0  0
    7.2560   10.3450   -0.4100 C   0  0  0  0  0  0  0  0  0  0  0  0
    8.5020   10.8720   -0.7430 N   0  0  0  0  0  0  0  0  0  0  0  0
    9.7850   10.3020   -0.5240 C   0  0  0  0  0  0  0  0  0  0  0  0
   10.0350    8.9400   -0.7040 C   0  0  0  0  0  0  0  0  0  0  0  0
   11.3100    8.4310   -0.4770 C   0  0  0  0  0  0  0  0  0  0  0  0
   12.3500    9.2870   -0.0810 C   0  0  0  0  0  0  0  0  0  0  0  0
   13.6600    8.8070    0.1720 N   0  0  0  0  0  0  0  0  0  0  0  0
   13.7970    7.3720    0.5180 C   0  0  0  0  0  0  0  0  0  0  0  0
   15.2110    7.1910    1.1270 C   0  0  0  0  0  0  0  0  0  0  0  0
   16.2300    7.5640    0.0890 N   0  3  0  0  0  0  0  0  0  0  0  0
   17.5740    7.3530    0.6890 C   0  0  0  0  0  0  0  0  0  0  0  0
   18.6000    7.2720   -0.4560 C   0  0  0  0  0  0  0  0  0  0  0  0
   19.8800    7.0340    0.1920 O   0  0  0  0  0  0  0  0  0  0  0  0
   20.9800    6.5400   -0.6850 C   0  0  0  0  0  0  0  0  0  0  0  0
   21.2030    7.5610   -1.7990 C   0  0  0  0  0  0  0  0  0  0  0  0
   20.6580    7.4280   -2.8850 O   0  0  0  0  0  0  0  0  0  0  0  0
   21.9020    8.6770   -1.6090 N   0  0  0  0  0  0  0  0  0  0  0  0
   22.5280    9.1760   -0.3730 C   0  0  2  0  0  0  0  0  0  0  0  0
   22.0690   10.6420   -0.0890 C   0  0  0  0  0  0  0  0  0  0  0  0
   22.2500   11.5210   -0.9320 O   0  0  0  0  0  0  0  0  0  0  0  0
   21.4230   10.9530    1.0520 N   0  0  0  0  0  0  0  0  0  0  0  0
   20.6760   10.0630    1.9290 C   0  0  0  0  0  0  0  0  0  0  0  0
   19.2940   10.7090    1.9800 C   0  0  2  0  0  0  0  0  0  0  0  0
   18.5780   10.3790    0.8010 O   0  0  0  0  0  0  0  0  0  0  0  0
   19.6100   12.2070    1.9600 C   0  0  0  0  0  0  0  0  0  0  0  0
   21.0460   12.3280    1.4050 C   0  0  1  0  0  0  0  0  0  0  0  0
   22.0340   12.9580    2.4330 C   0  0  0  0  0  0  0  0  0  0  0  0
   21.9800   12.6450    3.6170 O   0  0  0  0  0  0  0  0  0  0  0  0
   22.9360   13.8780    2.0980 N   0  0  0  0  0  0  0  0  0  0  0  0
   23.3900   14.2470    0.7670 C   0  0  1  0  0  0  0  0  0  0  0  0
   23.5900   15.7650    0.7970 C   0  0  0  0  0  0  0  0  0  0  0  0
   24.7510   13.6080    0.5120 C   0  0  0  0  0  0  0  0  0  0  0  0
   25.0660   13.2080   -0.7860 C   0  0  0  0  0  0  0  0  0  0  0  0
   26.2910   12.6160   -1.0690 C   0  0  0  0  0  0  0  0  0  0  0  0
   27.2340   12.4010   -0.0600 C   0  0  0  0  0  0  0  0  0  0  0  0
   28.5020   11.7450   -0.3480 C   0  0  0  0  0  0  0  0  0  0  0  0
   29.4230   12.0220   -1.3260 C   0  0  0  0  0  0  0  0  0  0  0  0
   29.3070   13.1410   -2.3340 C   0  0  0  0  0  0  0  0  0  0  0  0
   30.5040   11.2020   -1.3570 N   0  0  0  0  0  0  0  0  0  0  0  0
   30.4330   10.3090   -0.4120 C   0  0  0  0  0  0  0  0  0  0  0  0
   29.0360   10.4080    0.5840 S   0  0  0  0  0  0  0  0  0  0  0  0
   26.9220   12.8140    1.2390 C   0  0  0  0  0  0  0  0  0  0  0  0
   25.7000   13.4150    1.5220 C   0  0  0  0  0  0  0  0  0  0  0  0
   24.0820    9.0040   -0.4260 C   0  0  0  0  0  0  0  0  0  0  0  0
   24.7470    9.6700    0.7960 C   0  0  0  0  0  0  0  0  0  0  0  0
   24.7240    9.5810   -1.7050 C   0  0  0  0  0  0  0  0  0  0  0  0
   24.4720    7.5120   -0.3700 C   0  0  0  0  0  0  0  0  0  0  0  0
   16.0670    9.0380   -0.1890 C   0  0  0  0  0  0  0  0  0  0  0  0
   14.6660    9.2880   -0.8090 C   0  0  0  0  0  0  0  0  0  0  0  0
   12.1090   10.6560    0.0800 C   0  0  0  0  0  0  0  0  0  0  0  0
   10.8300   11.1590   -0.1480 C   0  0  0  0  0  0  0  0  0  0  0  0
   10.5460   12.5200   -0.0110 O   0  0  0  0  0  0  0  0  0  0  0  0
   11.4520   13.4950    0.5510 C   0  0  0  0  0  0  0  0  0  0  0  0
    7.1830    9.1350    0.1540 N   0  0  0  0  0  0  0  0  0  0  0  0
    5.9900    8.6380    0.4800 C   0  0  0  0  0  0  0  0  0  0  0  0
    4.7990    9.3290    0.2620 C   0  0  0  0  0  0  0  0  0  0  0  0
    3.4650    8.7190    0.6630 C   0  0  0  0  0  0  0  0  0  0  0  0
    2.9020    9.4400    1.6470 F   0  0  0  0  0  0  0  0  0  0  0  0
    2.6340    8.6750   -0.3950 F   0  0  0  0  0  0  0  0  0  0  0  0
    3.6350    7.4580    1.1110 F   0  0  0  0  0  0  0  0  0  0  0  0
   -1.4190   13.6690   -3.0000 H   0  0  0  0  0  0  0  0  0  0  0  0
   -1.0710   12.0190   -2.3870 H   0  0  0  0  0  0  0  0  0  0  0  0
   -0.1630   12.6680   -3.7850 H   0  0  0  0  0  0  0  0  0  0  0  0
    0.0580   14.1580   -1.2230 H   0  0  0  0  0  0  0  0  0  0  0  0
    1.6710   15.4410   -0.8200 H   0  0  0  0  0  0  0  0  0  0  0  0
    3.1060   16.3700    0.9120 H   0  0  0  0  0  0  0  0  0  0  0  0
    4.8020   14.9750    1.9930 H   0  0  0  0  0  0  0  0  0  0  0  0
    5.0820   12.6420    1.3270 H   0  0  0  0  0  0  0  0  0  0  0  0
    3.0770   11.0300   -1.3030 H   0  0  0  0  0  0  0  0  0  0  0  0
    6.2090   12.0640   -1.1190 H   0  0  0  0  0  0  0  0  0  0  0  0
    8.5280   11.8950   -0.8460 H   0  0  0  0  0  0  0  0  0  0  0  0
    9.2540    8.2980   -1.0170 H   0  0  0  0  0  0  0  0  0  0  0  0
   11.4810    7.3990   -0.6190 H   0  0  0  0  0  0  0  0  0  0  0  0
   13.0690    7.1190    1.2790 H   0  0  0  0  0  0  0  0  0  0  0  0
   13.7030    6.7560   -0.3670 H   0  0  0  0  0  0  0  0  0  0  0  0
   15.3240    6.1500    1.4060 H   0  0  0  0  0  0  0  0  0  0  0  0
   15.2860    7.8560    1.9790 H   0  0  0  0  0  0  0  0  0  0  0  0
   16.0980    7.0180   -0.7540 H   0  0  0  0  0  0  0  0  0  0  0  0
   17.8420    8.1780    1.3370 H   0  0  0  0  0  0  0  0  0  0  0  0
   17.6080    6.4040    1.2120 H   0  0  0  0  0  0  0  0  0  0  0  0
   18.6330    8.2080   -1.0150 H   0  0  0  0  0  0  0  0  0  0  0  0
   18.3550    6.4420   -1.1230 H   0  0  0  0  0  0  0  0  0  0  0  0
   21.8820    6.4460   -0.0990 H   0  0  0  0  0  0  0  0  0  0  0  0
   20.6850    5.6060   -1.1420 H   0  0  0  0  0  0  0  0  0  0  0  0
   21.9680    9.2850   -2.4120 H   0  0  0  0  0  0  0  0  0  0  0  0
   22.2000    8.5680    0.4630 H   0  0  0  0  0  0  0  0  0  0  0  0
   20.5850    9.0450    1.5570 H   0  0  0  0  0  0  0  0  0  0  0  0
   21.1220   10.0580    2.9270 H   0  0  0  0  0  0  0  0  0  0  0  0
   18.7430   10.4190    2.8770 H   0  0  0  0  0  0  0  0  0  0  0  0
   19.1400   10.6800    0.0740 H   0  0  0  0  0  0  0  0  0  0  0  0
   18.9080   12.7490    1.3270 H   0  0  0  0  0  0  0  0  0  0  0  0
   19.5510   12.6050    2.9740 H   0  0  0  0  0  0  0  0  0  0  0  0
   20.9970   12.9600    0.5200 H   0  0  0  0  0  0  0  0  0  0  0  0
   23.4930   14.1930    2.8710 H   0  0  0  0  0  0  0  0  0  0  0  0
   22.6910   13.9780   -0.0140 H   0  0  0  0  0  0  0  0  0  0  0  0
   24.3160   16.0180    1.5700 H   0  0  0  0  0  0  0  0  0  0  0  0
   22.6290   16.2350    1.0040 H   0  0  0  0  0  0  0  0  0  0  0  0
   23.9580   16.0760   -0.1800 H   0  0  0  0  0  0  0  0  0  0  0  0
   24.3610   13.3430   -1.5670 H   0  0  0  0  0  0  0  0  0  0  0  0
   26.5060   12.3070   -2.0590 H   0  0  0  0  0  0  0  0  0  0  0  0
   28.7410   13.9600   -1.8910 H   0  0  0  0  0  0  0  0  0  0  0  0
   28.8050   12.7480   -3.2170 H   0  0  0  0  0  0  0  0  0  0  0  0
   30.3130   13.4750   -2.5870 H   0  0  0  0  0  0  0  0  0  0  0  0
   31.1610    9.5600   -0.2330 H   0  0  0  0  0  0  0  0  0  0  0  0
   27.6270   12.6670    2.0160 H   0  0  0  0  0  0  0  0  0  0  0  0
   25.4960   13.7180    2.5160 H   0  0  0  0  0  0  0  0  0  0  0  0
   25.8230    9.4900    0.7910 H   0  0  0  0  0  0  0  0  0  0  0  0
   24.3290    9.2750    1.7220 H   0  0  0  0  0  0  0  0  0  0  0  0
   24.5930   10.7490    0.7750 H   0  0  0  0  0  0  0  0  0  0  0  0
   25.8110    9.5030   -1.6520 H   0  0  0  0  0  0  0  0  0  0  0  0
   24.4600   10.6300   -1.8230 H   0  0  0  0  0  0  0  0  0  0  0  0
   24.3830    9.0370   -2.5860 H   0  0  0  0  0  0  0  0  0  0  0  0
   25.5580    7.4060   -0.3810 H   0  0  0  0  0  0  0  0  0  0  0  0
   24.0730    6.9810   -1.2350 H   0  0  0  0  0  0  0  0  0  0  0  0
   24.0930    7.0530    0.5430 H   0  0  0  0  0  0  0  0  0  0  0  0
   16.1210    9.5980    0.7390 H   0  0  0  0  0  0  0  0  0  0  0  0
   16.8130    9.3730   -0.8990 H   0  0  0  0  0  0  0  0  0  0  0  0
   14.5740    8.7370   -1.7350 H   0  0  0  0  0  0  0  0  0  0  0  0
   14.5560   10.3530   -0.9630 H   0  0  0  0  0  0  0  0  0  0  0  0
   12.8940   11.2910    0.3860 H   0  0  0  0  0  0  0  0  0  0  0  0
   10.9310   14.4510    0.5930 H   0  0  0  0  0  0  0  0  0  0  0  0
   12.3270   13.5670   -0.0960 H   0  0  0  0  0  0  0  0  0  0  0  0
   11.7270   13.1680    1.5540 H   0  0  0  0  0  0  0  0  0  0  0  0
    5.9850    7.6740    0.9250 H   0  0  0  0  0  0  0  0  0  0  0  0
  1  2  1  0  0  0  0
  1 74  1  0  0  0  0
  1 75  1  0  0  0  0
  1 76  1  0  0  0  0
  2  3  1  0  0  0  0
  2 77  1  0  0  0  0
  3  4  2  0  0  0  0
  3  5  1  0  0  0  0
  5  6  1  0  0  0  0
  5 10  2  0  0  0  0
  6  7  2  0  0  0  0
  6 78  1  0  0  0  0
  7  8  1  0  0  0  0
  7 79  1  0  0  0  0
  8  9  2  0  0  0  0
  8 80  1  0  0  0  0
  9 10  1  0  0  0  0
  9 81  1  0  0  0  0
 10 11  1  0  0  0  0
 11 12  1  0  0  0  0
 11 82  1  0  0  0  0
 12 13  1  0  0  0  0
 12 69  2  0  0  0  0
 13 14  2  0  0  0  0
 13 83  1  0  0  0  0
 14 15  1  0  0  0  0
 14 67  1  0  0  0  0
 15 16  1  0  0  0  0
 15 84  1  0  0  0  0
 16 17  1  0  0  0  0
 16 64  2  0  0  0  0
 17 18  2  0  0  0  0
 17 85  1  0  0  0  0
 18 19  1  0  0  0  0
 18 86  1  0  0  0  0
 19 20  1  0  0  0  0
 19 63  2  0  0  0  0
 20 21  1  0  0  0  0
 20 62  1  0  0  0  0
 21 22  1  0  0  0  0
 21 87  1  0  0  0  0
 21 88  1  0  0  0  0
 22 23  1  0  0  0  0
 22 89  1  0  0  0  0
 22 90  1  0  0  0  0
 23 24  1  0  0  0  0
 23 61  1  0  0  0  0
 23 91  1  0  0  0  0
 24 25  1  0  0  0  0
 24 92  1  0  0  0  0
 24 93  1  0  0  0  0
 25 26  1  0  0  0  0
 25 94  1  0  0  0  0
 25 95  1  0  0  0  0
 26 27  1  0  0  0  0
 27 28  1  0  0  0  0
 27 96  1  0  0  0  0
 27 97  1  0  0  0  0
 28 29  2  0  0  0  0
 28 30  1  0  0  0  0
 30 31  1  0  0  0  0
 30 98  1  0  0  0  0
 31 32  1  0  0  0  0
 31 57  1  0  0  0  0
 31 99  1  0  0  0  0
 32 33  2  0  0  0  0
 32 34  1  0  0  0  0
 34 35  1  0  0  0  0
 34 39  1  0  0  0  0
 35 36  1  0  0  0  0
 35100  1  0  0  0  0
 35101  1  0  0  0  0
 36 37  1  0  0  0  0
 36 38  1  0  0  0  0
 36102  1  0  0  0  0
 37103  1  0  0  0  0
 38 39  1  0  0  0  0
 38104  1  0  0  0  0
 38105  1  0  0  0  0
 39 40  1  0  0  0  0
 39106  1  0  0  0  0
 40 41  2  0  0  0  0
 40 42  1  0  0  0  0
 42 43  1  0  0  0  0
 42107  1  0  0  0  0
 43 44  1  0  0  0  0
 43 45  1  0  0  0  0
 43108  1  0  0  0  0
 44109  1  0  0  0  0
 44110  1  0  0  0  0
 44111  1  0  0  0  0
 45 46  1  0  0  0  0
 45 56  2  0  0  0  0
 46 47  2  0  0  0  0
 46112  1  0  0  0  0
 47 48  1  0  0  0  0
 47113  1  0  0  0  0
 48 49  1  0  0  0  0
 48 55  2  0  0  0  0
 49 50  2  0  0  0  0
 49 54  1  0  0  0  0
 50 51  1  0  0  0  0
 50 52  1  0  0  0  0
 51114  1  0  0  0  0
 51115  1  0  0  0  0
 51116  1  0  0  0  0
 52 53  2  0  0  0  0
 53 54  1  0  0  0  0
 53117  1  0  0  0  0
 55 56  1  0  0  0  0
 55118  1  0  0  0  0
 56119  1  0  0  0  0
 57 58  1  0  0  0  0
 57 59  1  0  0  0  0
 57 60  1  0  0  0  0
 58120  1  0  0  0  0
 58121  1  0  0  0  0
 58122  1  0  0  0  0
 59123  1  0  0  0  0
 59124  1  0  0  0  0
 59125  1  0  0  0  0
 60126  1  0  0  0  0
 60127  1  0  0  0  0
 60128  1  0  0  0  0
 61 62  1  0  0  0  0
 61129  1  0  0  0  0
 61130  1  0  0  0  0
 62131  1  0  0  0  0
 62132  1  0  0  0  0
 63 64  1  0  0  0  0
 63133  1  0  0  0  0
 64 65  1  0  0  0  0
 65 66  1  0  0  0  0
 66134  1  0  0  0  0
 66135  1  0  0  0  0
 66136  1  0  0  0  0
 67 68  2  0  0  0  0
 68 69  1  0  0  0  0
 68137  1  0  0  0  0
 69 70  1  0  0  0  0
 70 71  1  0  0  0  0
 70 72  1  0  0  0  0
 70 73  1  0  0  0  0
M  CHG  1  23   1
M  END
>  <Compound ID>
2890

>  <Uniprot>
Q05397

>  <Target>
FAK

>  <E3 ligase>
VHL

>  <DC50 (nM)>
31.6 

>  <Assay (DC50/Dmax)>
Degradation of FAK in A549 cells after 24 h treatment

>  <IC50 (nM, Protac to Target)>
1

>  <Assay (Protac to Target, IC50)>
IC50 was assessed by FRET

>  <Article DOI>
10.1002/anie.202109237

>  <Molecular Weight>
1029.2

>  <Exact Mass>
1028.4554

>  <XLogP3>
7.2600002

>  <Heavy Atom Count>
73

>  <Ring Count>
7

>  <Hydrogen Bond Acceptor Count>
14

>  <Hydrogen Bond Donor Count>
6

>  <Rotatable Bond Count>
18

>  <Topological Polar Surface Area>
202.62

>  <Molecular Formula>
C52H63F3N10O7S

>  <InChI>
InChI=1S/C52H63F3N10O7S/c1-31(33-12-14-34(15-13-33)46-32(2)58-30-73-46)59-49(69)42-25-36(66)28-65(42)50(70)47(51(3,4)5)62-45(67)29-72-23-22-63-18-20-64(21-19-63)35-16-17-40(43(24-35)71-7)61-44-26-41(38(27-57-44)52(53,54)55)60-39-11-9-8-10-37(39)48(68)56-6/h8-17,24,26-27,30-31,36,42,47,66H,18-23,25,28-29H2,1-7H3,(H,56,68)(H,59,69)(H,62,67)(H2,57,60,61)/t31-,36+,42-,47+/m0/s1

>  <InChI Key>
SLSLLSIRBMAERC-MGVZSLQJSA-N

>  <IC50 (nM, Protac to E3)>
794.29999

>  <Assay (Protac to E3, IC50)>
PF

>  <IC50 (nM, Ternary complex)>
6.3099999

>  <Assay (Ternary complex, IC50)>
IC50 between VHL and the complex of protac and FAK was tested by FRET

$$$$
2891
  MOE2022           3D

133139  0  0  1  0  0  0  0  0999 V2000
   23.9690   21.9060    2.3060 C   0  0  0  0  0  0  0  0  0  0  0  0
   23.4900   20.9820    1.2700 N   0  0  0  0  0  0  0  0  0  0  0  0
   22.2640   20.3650    1.3320 C   0  0  0  0  0  0  0  0  0  0  0  0
   21.5900   20.5830    2.3370 O   0  0  0  0  0  0  0  0  0  0  0  0
   21.8340   19.5190    0.2110 C   0  0  0  0  0  0  0  0  0  0  0  0
   22.7850   18.9130   -0.6300 C   0  0  0  0  0  0  0  0  0  0  0  0
   22.3950   18.1540   -1.7280 C   0  0  0  0  0  0  0  0  0  0  0  0
   21.0420   17.9790   -2.0120 C   0  0  0  0  0  0  0  0  0  0  0  0
   20.0780   18.5470   -1.1920 C   0  0  0  0  0  0  0  0  0  0  0  0
   20.4660   19.2930   -0.0720 C   0  0  0  0  0  0  0  0  0  0  0  0
   19.4780   19.8420    0.7700 N   0  0  0  0  0  0  0  0  0  0  0  0
   18.1400   19.4280    0.8240 C   0  0  0  0  0  0  0  0  0  0  0  0
   17.8570   18.0830    1.0050 C   0  0  0  0  0  0  0  0  0  0  0  0
   16.5260   17.6840    1.0440 C   0  0  0  0  0  0  0  0  0  0  0  0
   16.2520   16.3280    1.2000 N   0  0  0  0  0  0  0  0  0  0  0  0
   14.9960   15.6720    1.1030 C   0  0  0  0  0  0  0  0  0  0  0  0
   13.8370   16.1910    1.6790 C   0  0  0  0  0  0  0  0  0  0  0  0
   12.6350   15.4980    1.5600 C   0  0  0  0  0  0  0  0  0  0  0  0
   12.5820   14.2830    0.8640 C   0  0  0  0  0  0  0  0  0  0  0  0
   11.3250   13.6270    0.7550 N   0  0  0  0  0  0  0  0  0  0  0  0
   11.3280   12.1870    0.4020 C   0  0  0  0  0  0  0  0  0  0  0  0
    9.9210   11.6340    0.7460 C   0  0  0  0  0  0  0  0  0  0  0  0
    8.8970   12.3660   -0.0790 N   0  3  0  0  0  0  0  0  0  0  0  0
    7.5820   11.7630    0.2390 C   0  0  0  0  0  0  0  0  0  0  0  0
    6.6140   12.1390   -0.8960 C   0  0  0  0  0  0  0  0  0  0  0  0
    5.3220   11.3820   -0.6090 C   0  0  0  0  0  0  0  0  0  0  0  0
    5.1860   10.7810    0.4440 O   0  0  0  0  0  0  0  0  0  0  0  0
    4.4150   11.3710   -1.5790 N   0  0  0  0  0  0  0  0  0  0  0  0
    3.0780   10.7290   -1.5730 C   0  0  2  0  0  0  0  0  0  0  0  0
    1.9860   11.2820   -0.5820 C   0  0  0  0  0  0  0  0  0  0  0  0
    1.1510   12.0400   -1.0760 O   0  0  0  0  0  0  0  0  0  0  0  0
    1.9170   11.0580    0.7520 N   0  0  0  0  0  0  0  0  0  0  0  0
    2.6040   10.0320    1.5280 C   0  0  0  0  0  0  0  0  0  0  0  0
    1.5790    9.5210    2.5380 C   0  0  2  0  0  0  0  0  0  0  0  0
    0.6760    8.6090    1.9480 O   0  0  0  0  0  0  0  0  0  0  0  0
    0.8520   10.8050    2.9060 C   0  0  0  0  0  0  0  0  0  0  0  0
    0.8610   11.6440    1.6160 C   0  0  1  0  0  0  0  0  0  0  0  0
    0.9410   13.1780    1.8940 C   0  0  0  0  0  0  0  0  0  0  0  0
    0.6620   13.6350    3.0010 O   0  0  0  0  0  0  0  0  0  0  0  0
    1.3500   13.9770    0.9110 N   0  0  0  0  0  0  0  0  0  0  0  0
    1.2370   15.4170    0.9720 C   0  0  1  0  0  0  0  0  0  0  0  0
    2.3790   15.9790    0.1180 C   0  0  0  0  0  0  0  0  0  0  0  0
   -0.0900   15.8040    0.3310 C   0  0  0  0  0  0  0  0  0  0  0  0
   -0.4830   15.3180   -0.9200 C   0  0  0  0  0  0  0  0  0  0  0  0
   -1.6990   15.6980   -1.4760 C   0  0  0  0  0  0  0  0  0  0  0  0
   -2.5540   16.5770   -0.8020 C   0  0  0  0  0  0  0  0  0  0  0  0
   -3.8240   16.9890   -1.3870 C   0  0  0  0  0  0  0  0  0  0  0  0
   -4.0840   17.4760   -2.6430 C   0  0  0  0  0  0  0  0  0  0  0  0
   -3.0450   17.7130   -3.7140 C   0  0  0  0  0  0  0  0  0  0  0  0
   -5.3870   17.7550   -2.9020 N   0  0  0  0  0  0  0  0  0  0  0  0
   -6.1280   17.5000   -1.8620 C   0  0  0  0  0  0  0  0  0  0  0  0
   -5.2830   16.9020   -0.4900 S   0  0  0  0  0  0  0  0  0  0  0  0
   -2.1630   17.0480    0.4560 C   0  0  0  0  0  0  0  0  0  0  0  0
   -0.9470   16.6670    1.0140 C   0  0  0  0  0  0  0  0  0  0  0  0
    3.1030    9.2080   -1.9780 C   0  0  0  0  0  0  0  0  0  0  0  0
    1.7670    8.4970   -1.6790 C   0  0  0  0  0  0  0  0  0  0  0  0
    3.2830    9.1110   -3.5120 C   0  0  0  0  0  0  0  0  0  0  0  0
    4.2660    8.3610   -1.4090 C   0  0  0  0  0  0  0  0  0  0  0  0
    8.9100   13.8030    0.3790 C   0  0  0  0  0  0  0  0  0  0  0  0
   10.2930   14.4260    0.0410 C   0  0  0  0  0  0  0  0  0  0  0  0
   13.7520   13.7440    0.3080 C   0  0  0  0  0  0  0  0  0  0  0  0
   14.9540   14.4390    0.4360 C   0  0  0  0  0  0  0  0  0  0  0  0
   16.1480   13.9340   -0.0860 O   0  0  0  0  0  0  0  0  0  0  0  0
   16.2870   12.6970   -0.8190 C   0  0  0  0  0  0  0  0  0  0  0  0
   15.5170   18.5530    0.9210 N   0  0  0  0  0  0  0  0  0  0  0  0
   15.7900   19.8490    0.7590 C   0  0  0  0  0  0  0  0  0  0  0  0
   17.0910   20.3460    0.7060 C   0  0  0  0  0  0  0  0  0  0  0  0
   17.3450   21.8310    0.5040 C   0  0  0  0  0  0  0  0  0  0  0  0
   16.1840   22.5170    0.5120 F   0  0  0  0  0  0  0  0  0  0  0  0
   17.9480   22.0430   -0.6780 F   0  0  0  0  0  0  0  0  0  0  0  0
   18.1180   22.3130    1.4960 F   0  0  0  0  0  0  0  0  0  0  0  0
   25.0440   22.0450    2.1840 H   0  0  0  0  0  0  0  0  0  0  0  0
   23.7570   21.4780    3.2880 H   0  0  0  0  0  0  0  0  0  0  0  0
   23.4440   22.8570    2.1920 H   0  0  0  0  0  0  0  0  0  0  0  0
   23.9890   20.9610    0.3710 H   0  0  0  0  0  0  0  0  0  0  0  0
   23.8190   19.0250   -0.4280 H   0  0  0  0  0  0  0  0  0  0  0  0
   23.1260   17.7070   -2.3530 H   0  0  0  0  0  0  0  0  0  0  0  0
   20.7490   17.4100   -2.8580 H   0  0  0  0  0  0  0  0  0  0  0  0
   19.0520   18.4190   -1.4200 H   0  0  0  0  0  0  0  0  0  0  0  0
   19.8480   20.4030    1.5740 H   0  0  0  0  0  0  0  0  0  0  0  0
   18.6360   17.3770    1.1130 H   0  0  0  0  0  0  0  0  0  0  0  0
   17.0440   15.7050    0.9990 H   0  0  0  0  0  0  0  0  0  0  0  0
   13.8760   17.1040    2.2130 H   0  0  0  0  0  0  0  0  0  0  0  0
   11.7630   15.8860    2.0140 H   0  0  0  0  0  0  0  0  0  0  0  0
   11.5230   12.0570   -0.6550 H   0  0  0  0  0  0  0  0  0  0  0  0
   12.0470   11.6690    1.0250 H   0  0  0  0  0  0  0  0  0  0  0  0
    9.7490   11.8140    1.8010 H   0  0  0  0  0  0  0  0  0  0  0  0
    9.9090   10.5770    0.5050 H   0  0  0  0  0  0  0  0  0  0  0  0
    9.1260   12.2930   -1.0620 H   0  0  0  0  0  0  0  0  0  0  0  0
    7.6630   10.6810    0.2500 H   0  0  0  0  0  0  0  0  0  0  0  0
    7.1930   12.1410    1.1790 H   0  0  0  0  0  0  0  0  0  0  0  0
    7.0070   11.8150   -1.8590 H   0  0  0  0  0  0  0  0  0  0  0  0
    6.4040   13.2070   -0.9060 H   0  0  0  0  0  0  0  0  0  0  0  0
    4.6250   11.8810   -2.4190 H   0  0  0  0  0  0  0  0  0  0  0  0
    2.6610   11.1640   -2.4820 H   0  0  0  0  0  0  0  0  0  0  0  0
    2.9500    9.2050    0.9240 H   0  0  0  0  0  0  0  0  0  0  0  0
    3.4390   10.4740    2.0720 H   0  0  0  0  0  0  0  0  0  0  0  0
    2.0640    9.0700    3.4060 H   0  0  0  0  0  0  0  0  0  0  0  0
    0.3030    9.0210    1.1630 H   0  0  0  0  0  0  0  0  0  0  0  0
   -0.1640   10.6150    3.2540 H   0  0  0  0  0  0  0  0  0  0  0  0
    1.4210   11.3110    3.6870 H   0  0  0  0  0  0  0  0  0  0  0  0
   -0.0940   11.4810    1.1140 H   0  0  0  0  0  0  0  0  0  0  0  0
    1.4300   13.5410    0.0030 H   0  0  0  0  0  0  0  0  0  0  0  0
    1.3070   15.7880    1.9880 H   0  0  0  0  0  0  0  0  0  0  0  0
    2.3160   15.5730   -0.8910 H   0  0  0  0  0  0  0  0  0  0  0  0
    3.3200   15.6960    0.5890 H   0  0  0  0  0  0  0  0  0  0  0  0
    2.2770   17.0630    0.0980 H   0  0  0  0  0  0  0  0  0  0  0  0
    0.1430   14.6470   -1.4510 H   0  0  0  0  0  0  0  0  0  0  0  0
   -1.9860   15.3110   -2.4190 H   0  0  0  0  0  0  0  0  0  0  0  0
   -2.0940   17.9550   -3.2410 H   0  0  0  0  0  0  0  0  0  0  0  0
   -3.3800   18.5480   -4.3300 H   0  0  0  0  0  0  0  0  0  0  0  0
   -2.9680   16.8070   -4.3140 H   0  0  0  0  0  0  0  0  0  0  0  0
   -7.1780   17.6390   -1.8190 H   0  0  0  0  0  0  0  0  0  0  0  0
   -2.8010   17.7050    0.9880 H   0  0  0  0  0  0  0  0  0  0  0  0
   -0.6750   17.0360    1.9700 H   0  0  0  0  0  0  0  0  0  0  0  0
    1.7680    7.4910   -2.1000 H   0  0  0  0  0  0  0  0  0  0  0  0
    0.9350    9.0530   -2.1140 H   0  0  0  0  0  0  0  0  0  0  0  0
    1.6090    8.4040   -0.6070 H   0  0  0  0  0  0  0  0  0  0  0  0
    3.3150    8.0680   -3.8330 H   0  0  0  0  0  0  0  0  0  0  0  0
    4.2140    9.5910   -3.8190 H   0  0  0  0  0  0  0  0  0  0  0  0
    2.4530    9.5940   -4.0300 H   0  0  0  0  0  0  0  0  0  0  0  0
    4.1770    7.3250   -1.7400 H   0  0  0  0  0  0  0  0  0  0  0  0
    4.2780    8.3600   -0.3250 H   0  0  0  0  0  0  0  0  0  0  0  0
    5.2240    8.7450   -1.7590 H   0  0  0  0  0  0  0  0  0  0  0  0
    8.1530   14.3730   -0.1450 H   0  0  0  0  0  0  0  0  0  0  0  0
    8.7870   13.8520    1.4550 H   0  0  0  0  0  0  0  0  0  0  0  0
   10.2900   15.4470    0.3990 H   0  0  0  0  0  0  0  0  0  0  0  0
   10.4650   14.3790   -1.0270 H   0  0  0  0  0  0  0  0  0  0  0  0
   13.7300   12.8290   -0.2130 H   0  0  0  0  0  0  0  0  0  0  0  0
   17.3350   12.5920   -1.1000 H   0  0  0  0  0  0  0  0  0  0  0  0
   15.6600   12.7520   -1.7090 H   0  0  0  0  0  0  0  0  0  0  0  0
   15.9840   11.8760   -0.1680 H   0  0  0  0  0  0  0  0  0  0  0  0
   14.9560   20.4990    0.6670 H   0  0  0  0  0  0  0  0  0  0  0  0
  1  2  1  0  0  0  0
  1 72  1  0  0  0  0
  1 73  1  0  0  0  0
  1 74  1  0  0  0  0
  2  3  1  0  0  0  0
  2 75  1  0  0  0  0
  3  4  2  0  0  0  0
  3  5  1  0  0  0  0
  5  6  1  0  0  0  0
  5 10  2  0  0  0  0
  6  7  2  0  0  0  0
  6 76  1  0  0  0  0
  7  8  1  0  0  0  0
  7 77  1  0  0  0  0
  8  9  2  0  0  0  0
  8 78  1  0  0  0  0
  9 10  1  0  0  0  0
  9 79  1  0  0  0  0
 10 11  1  0  0  0  0
 11 12  1  0  0  0  0
 11 80  1  0  0  0  0
 12 13  1  0  0  0  0
 12 67  2  0  0  0  0
 13 14  2  0  0  0  0
 13 81  1  0  0  0  0
 14 15  1  0  0  0  0
 14 65  1  0  0  0  0
 15 16  1  0  0  0  0
 15 82  1  0  0  0  0
 16 17  1  0  0  0  0
 16 62  2  0  0  0  0
 17 18  2  0  0  0  0
 17 83  1  0  0  0  0
 18 19  1  0  0  0  0
 18 84  1  0  0  0  0
 19 20  1  0  0  0  0
 19 61  2  0  0  0  0
 20 21  1  0  0  0  0
 20 60  1  0  0  0  0
 21 22  1  0  0  0  0
 21 85  1  0  0  0  0
 21 86  1  0  0  0  0
 22 23  1  0  0  0  0
 22 87  1  0  0  0  0
 22 88  1  0  0  0  0
 23 24  1  0  0  0  0
 23 59  1  0  0  0  0
 23 89  1  0  0  0  0
 24 25  1  0  0  0  0
 24 90  1  0  0  0  0
 24 91  1  0  0  0  0
 25 26  1  0  0  0  0
 25 92  1  0  0  0  0
 25 93  1  0  0  0  0
 26 27  2  0  0  0  0
 26 28  1  0  0  0  0
 28 29  1  0  0  0  0
 28 94  1  0  0  0  0
 29 30  1  0  0  0  0
 29 55  1  0  0  0  0
 29 95  1  0  0  0  0
 30 31  2  0  0  0  0
 30 32  1  0  0  0  0
 32 33  1  0  0  0  0
 32 37  1  0  0  0  0
 33 34  1  0  0  0  0
 33 96  1  0  0  0  0
 33 97  1  0  0  0  0
 34 35  1  0  0  0  0
 34 36  1  0  0  0  0
 34 98  1  0  0  0  0
 35 99  1  0  0  0  0
 36 37  1  0  0  0  0
 36100  1  0  0  0  0
 36101  1  0  0  0  0
 37 38  1  0  0  0  0
 37102  1  0  0  0  0
 38 39  2  0  0  0  0
 38 40  1  0  0  0  0
 40 41  1  0  0  0  0
 40103  1  0  0  0  0
 41 42  1  0  0  0  0
 41 43  1  0  0  0  0
 41104  1  0  0  0  0
 42105  1  0  0  0  0
 42106  1  0  0  0  0
 42107  1  0  0  0  0
 43 44  1  0  0  0  0
 43 54  2  0  0  0  0
 44 45  2  0  0  0  0
 44108  1  0  0  0  0
 45 46  1  0  0  0  0
 45109  1  0  0  0  0
 46 47  1  0  0  0  0
 46 53  2  0  0  0  0
 47 48  2  0  0  0  0
 47 52  1  0  0  0  0
 48 49  1  0  0  0  0
 48 50  1  0  0  0  0
 49110  1  0  0  0  0
 49111  1  0  0  0  0
 49112  1  0  0  0  0
 50 51  2  0  0  0  0
 51 52  1  0  0  0  0
 51113  1  0  0  0  0
 53 54  1  0  0  0  0
 53114  1  0  0  0  0
 54115  1  0  0  0  0
 55 56  1  0  0  0  0
 55 57  1  0  0  0  0
 55 58  1  0  0  0  0
 56116  1  0  0  0  0
 56117  1  0  0  0  0
 56118  1  0  0  0  0
 57119  1  0  0  0  0
 57120  1  0  0  0  0
 57121  1  0  0  0  0
 58122  1  0  0  0  0
 58123  1  0  0  0  0
 58124  1  0  0  0  0
 59 60  1  0  0  0  0
 59125  1  0  0  0  0
 59126  1  0  0  0  0
 60127  1  0  0  0  0
 60128  1  0  0  0  0
 61 62  1  0  0  0  0
 61129  1  0  0  0  0
 62 63  1  0  0  0  0
 63 64  1  0  0  0  0
 64130  1  0  0  0  0
 64131  1  0  0  0  0
 64132  1  0  0  0  0
 65 66  2  0  0  0  0
 66 67  1  0  0  0  0
 66133  1  0  0  0  0
 67 68  1  0  0  0  0
 68 69  1  0  0  0  0
 68 70  1  0  0  0  0
 68 71  1  0  0  0  0
M  CHG  1  23   1
M  END
>  <Compound ID>
2891

>  <Uniprot>
Q05397

>  <Target>
FAK

>  <E3 ligase>
VHL

>  <DC50 (nM)>
39.8 

>  <Assay (DC50/Dmax)>
Degradation of FAK in A549 cells after 24 h treatment

>  <IC50 (nM, Protac to Target)>
1.26

>  <Assay (Protac to Target, IC50)>
IC50 was assessed by FRET

>  <Article DOI>
10.1002/anie.202109237

>  <Molecular Weight>
999.17401

>  <Exact Mass>
998.44482

>  <XLogP3>
7.3099999

>  <Heavy Atom Count>
71

>  <Ring Count>
7

>  <Hydrogen Bond Acceptor Count>
13

>  <Hydrogen Bond Donor Count>
6

>  <Rotatable Bond Count>
16

>  <Topological Polar Surface Area>
193.39

>  <Molecular Formula>
C51H61F3N10O6S

>  <InChI>
InChI=1S/C51H61F3N10O6S/c1-30(32-12-14-33(15-13-32)45-31(2)57-29-71-45)58-48(68)41-25-35(65)28-64(41)49(69)46(50(3,4)5)61-44(66)18-19-62-20-22-63(23-21-62)34-16-17-39(42(24-34)70-7)60-43-26-40(37(27-56-43)51(52,53)54)59-38-11-9-8-10-36(38)47(67)55-6/h8-17,24,26-27,29-30,35,41,46,65H,18-23,25,28H2,1-7H3,(H,55,67)(H,58,68)(H,61,66)(H2,56,59,60)/t30-,35+,41-,46+/m0/s1

>  <InChI Key>
ASRIXACKPXMNKY-FCFVTTBASA-N

>  <IC50 (nM, Protac to E3)>
1258.9

>  <Assay (Protac to E3, IC50)>
PF

>  <IC50 (nM, Ternary complex)>
10

>  <Assay (Ternary complex, IC50)>
IC50 between VHL and the complex of protac and FAK was tested by FRET

$$$$
2892
  MOE2022           3D

129135  0  0  1  0  0  0  0  0999 V2000
   -3.4070  -15.9990   -2.9150 C   0  0  0  0  0  0  0  0  0  0  0  0
   -2.8710  -14.7960   -2.2650 N   0  0  0  0  0  0  0  0  0  0  0  0
   -1.5550  -14.6760   -1.8910 C   0  0  0  0  0  0  0  0  0  0  0  0
   -0.8090  -15.6090   -2.1840 O   0  0  0  0  0  0  0  0  0  0  0  0
   -1.1290  -13.4750   -1.1640 C   0  0  0  0  0  0  0  0  0  0  0  0
   -1.7910  -12.2490   -1.3590 C   0  0  0  0  0  0  0  0  0  0  0  0
   -1.4180  -11.1130   -0.6510 C   0  0  0  0  0  0  0  0  0  0  0  0
   -0.3700  -11.1720    0.2670 C   0  0  0  0  0  0  0  0  0  0  0  0
    0.3130  -12.3620    0.4720 C   0  0  0  0  0  0  0  0  0  0  0  0
   -0.0550  -13.5070   -0.2460 C   0  0  0  0  0  0  0  0  0  0  0  0
    0.6460  -14.7110   -0.0410 N   0  0  0  0  0  0  0  0  0  0  0  0
    1.8500  -14.8150    0.6610 C   0  0  0  0  0  0  0  0  0  0  0  0
    3.0050  -14.3330    0.0690 C   0  0  0  0  0  0  0  0  0  0  0  0
    4.2010  -14.4450    0.7700 C   0  0  0  0  0  0  0  0  0  0  0  0
    5.3600  -13.9490    0.1830 N   0  0  0  0  0  0  0  0  0  0  0  0
    6.7240  -14.2070    0.4960 C   0  0  0  0  0  0  0  0  0  0  0  0
    7.1420  -15.3780    1.1300 C   0  0  0  0  0  0  0  0  0  0  0  0
    8.4970  -15.5880    1.3700 C   0  0  0  0  0  0  0  0  0  0  0  0
    9.4460  -14.6430    0.9630 C   0  0  0  0  0  0  0  0  0  0  0  0
   10.8150  -14.9300    1.2060 N   0  0  0  0  0  0  0  0  0  0  0  0
   11.3010  -16.1430    0.4930 C   0  0  0  0  0  0  0  0  0  0  0  0
   12.6130  -16.5950    1.1790 C   0  0  0  0  0  0  0  0  0  0  0  0
   13.6160  -15.5020    1.0260 N   0  0  0  0  0  0  0  0  0  0  0  0
   14.9350  -15.9420    1.6030 C   0  0  0  0  0  0  0  0  0  0  0  0
   16.1460  -15.1330    1.1040 C   0  0  0  0  0  0  0  0  0  0  0  0
   17.1840  -15.0970    1.7570 O   0  0  0  0  0  0  0  0  0  0  0  0
   16.0140  -14.5630   -0.0930 N   0  0  0  0  0  0  0  0  0  0  0  0
   16.9880  -13.7030   -0.8030 C   0  0  2  0  0  0  0  0  0  0  0  0
   18.4990  -14.0800   -0.5880 C   0  0  0  0  0  0  0  0  0  0  0  0
   19.2990  -13.2740   -0.1100 O   0  0  0  0  0  0  0  0  0  0  0  0
   18.9390  -15.3240   -0.8740 N   0  0  0  0  0  0  0  0  0  0  0  0
   18.2010  -16.4640   -1.4000 C   0  0  0  0  0  0  0  0  0  0  0  0
   18.6350  -17.6320   -0.5180 C   0  0  2  0  0  0  0  0  0  0  0  0
   17.9240  -17.6390    0.7030 O   0  0  0  0  0  0  0  0  0  0  0  0
   20.1080  -17.3230   -0.2590 C   0  0  0  0  0  0  0  0  0  0  0  0
   20.2360  -15.7930   -0.3760 C   0  0  1  0  0  0  0  0  0  0  0  0
   21.4370  -15.3720   -1.2740 C   0  0  0  0  0  0  0  0  0  0  0  0
   21.5150  -15.7630   -2.4350 O   0  0  0  0  0  0  0  0  0  0  0  0
   22.4680  -14.6740   -0.7990 N   0  0  0  0  0  0  0  0  0  0  0  0
   22.5410  -13.9710    0.4650 C   0  0  1  0  0  0  0  0  0  0  0  0
   23.0870  -14.9500    1.5150 C   0  0  0  0  0  0  0  0  0  0  0  0
   23.5500  -12.8480    0.2660 C   0  0  0  0  0  0  0  0  0  0  0  0
   24.8690  -13.0950   -0.1250 C   0  0  0  0  0  0  0  0  0  0  0  0
   25.7630  -12.0450   -0.2990 C   0  0  0  0  0  0  0  0  0  0  0  0
   25.3650  -10.7210   -0.0890 C   0  0  0  0  0  0  0  0  0  0  0  0
   26.3090   -9.6240   -0.2740 C   0  0  0  0  0  0  0  0  0  0  0  0
   26.5740   -8.5520    0.5410 C   0  0  0  0  0  0  0  0  0  0  0  0
   25.9240   -8.2920    1.8790 C   0  0  0  0  0  0  0  0  0  0  0  0
   27.5010   -7.6780    0.0720 N   0  0  0  0  0  0  0  0  0  0  0  0
   27.9600   -8.0680   -1.0820 C   0  0  0  0  0  0  0  0  0  0  0  0
   27.2910   -9.5340   -1.6780 S   0  0  0  0  0  0  0  0  0  0  0  0
   24.0400  -10.4780    0.2890 C   0  0  0  0  0  0  0  0  0  0  0  0
   23.1450  -11.5280    0.4650 C   0  0  0  0  0  0  0  0  0  0  0  0
   16.5950  -12.1920   -0.6310 C   0  0  0  0  0  0  0  0  0  0  0  0
   16.7180  -11.6850    0.8200 C   0  0  0  0  0  0  0  0  0  0  0  0
   15.1260  -11.9680   -1.0640 C   0  0  0  0  0  0  0  0  0  0  0  0
   17.4250  -11.2730   -1.5540 C   0  0  0  0  0  0  0  0  0  0  0  0
   13.1170  -14.3000    1.7620 C   0  0  0  0  0  0  0  0  0  0  0  0
   11.8040  -13.8270    1.0880 C   0  0  0  0  0  0  0  0  0  0  0  0
    9.0310  -13.4610    0.3340 C   0  0  0  0  0  0  0  0  0  0  0  0
    7.6720  -13.2520    0.0990 C   0  0  0  0  0  0  0  0  0  0  0  0
    7.2130  -12.1000   -0.5470 O   0  0  0  0  0  0  0  0  0  0  0  0
    8.0410  -10.9710   -0.9030 C   0  0  0  0  0  0  0  0  0  0  0  0
    4.2670  -14.9880    1.9900 N   0  0  0  0  0  0  0  0  0  0  0  0
    3.1510  -15.4490    2.5590 C   0  0  0  0  0  0  0  0  0  0  0  0
    1.9060  -15.3900    1.9350 C   0  0  0  0  0  0  0  0  0  0  0  0
    0.6630  -15.9240    2.6290 C   0  0  0  0  0  0  0  0  0  0  0  0
   -0.2040  -14.9240    2.8680 F   0  0  0  0  0  0  0  0  0  0  0  0
    0.9870  -16.4850    3.8110 F   0  0  0  0  0  0  0  0  0  0  0  0
    0.0690  -16.8660    1.8730 F   0  0  0  0  0  0  0  0  0  0  0  0
   -4.3550  -15.7490   -3.3920 H   0  0  0  0  0  0  0  0  0  0  0  0
   -3.5510  -16.7690   -2.1550 H   0  0  0  0  0  0  0  0  0  0  0  0
   -2.6930  -16.3460   -3.6660 H   0  0  0  0  0  0  0  0  0  0  0  0
   -3.5380  -14.1140   -1.8810 H   0  0  0  0  0  0  0  0  0  0  0  0
   -2.5800  -12.1810   -2.0620 H   0  0  0  0  0  0  0  0  0  0  0  0
   -1.9290  -10.1970   -0.8080 H   0  0  0  0  0  0  0  0  0  0  0  0
   -0.0930  -10.3030    0.8090 H   0  0  0  0  0  0  0  0  0  0  0  0
    1.1060  -12.3990    1.1720 H   0  0  0  0  0  0  0  0  0  0  0  0
    0.3910  -15.4850   -0.6980 H   0  0  0  0  0  0  0  0  0  0  0  0
    2.9800  -13.8970   -0.8930 H   0  0  0  0  0  0  0  0  0  0  0  0
    5.2320  -13.1790   -0.4860 H   0  0  0  0  0  0  0  0  0  0  0  0
    6.4350  -16.1070    1.4250 H   0  0  0  0  0  0  0  0  0  0  0  0
    8.8140  -16.4640    1.8710 H   0  0  0  0  0  0  0  0  0  0  0  0
   10.5880  -16.9500    0.5850 H   0  0  0  0  0  0  0  0  0  0  0  0
   11.5100  -15.9030   -0.5410 H   0  0  0  0  0  0  0  0  0  0  0  0
   12.9620  -17.4820    0.6670 H   0  0  0  0  0  0  0  0  0  0  0  0
   12.4060  -16.7760    2.2260 H   0  0  0  0  0  0  0  0  0  0  0  0
   14.9140  -15.8960    2.6920 H   0  0  0  0  0  0  0  0  0  0  0  0
   15.1270  -16.9770    1.3150 H   0  0  0  0  0  0  0  0  0  0  0  0
   15.0830  -14.6490   -0.4770 H   0  0  0  0  0  0  0  0  0  0  0  0
   16.8340  -13.9120   -1.8600 H   0  0  0  0  0  0  0  0  0  0  0  0
   17.1200  -16.3540   -1.3660 H   0  0  0  0  0  0  0  0  0  0  0  0
   18.5120  -16.6520   -2.4300 H   0  0  0  0  0  0  0  0  0  0  0  0
   18.5130  -18.5870   -1.0340 H   0  0  0  0  0  0  0  0  0  0  0  0
   17.9530  -16.7400    1.0750 H   0  0  0  0  0  0  0  0  0  0  0  0
   20.4190  -17.6690    0.7270 H   0  0  0  0  0  0  0  0  0  0  0  0
   20.7110  -17.8110   -1.0250 H   0  0  0  0  0  0  0  0  0  0  0  0
   20.3720  -15.4010    0.6300 H   0  0  0  0  0  0  0  0  0  0  0  0
   23.1640  -14.4400   -1.4860 H   0  0  0  0  0  0  0  0  0  0  0  0
   21.5840  -13.5680    0.7710 H   0  0  0  0  0  0  0  0  0  0  0  0
   24.0050  -15.4110    1.1510 H   0  0  0  0  0  0  0  0  0  0  0  0
   22.3390  -15.7170    1.7070 H   0  0  0  0  0  0  0  0  0  0  0  0
   23.2820  -14.3860    2.4270 H   0  0  0  0  0  0  0  0  0  0  0  0
   25.1980  -14.0880   -0.2930 H   0  0  0  0  0  0  0  0  0  0  0  0
   26.7610  -12.2490   -0.5930 H   0  0  0  0  0  0  0  0  0  0  0  0
   25.6350   -9.2430    2.3270 H   0  0  0  0  0  0  0  0  0  0  0  0
   25.0560   -7.6550    1.7110 H   0  0  0  0  0  0  0  0  0  0  0  0
   26.6500   -7.7840    2.5140 H   0  0  0  0  0  0  0  0  0  0  0  0
   28.6930   -7.5510   -1.6470 H   0  0  0  0  0  0  0  0  0  0  0  0
   23.7110   -9.4820    0.4310 H   0  0  0  0  0  0  0  0  0  0  0  0
   22.1430  -11.3180    0.7460 H   0  0  0  0  0  0  0  0  0  0  0  0
   16.4150  -10.6390    0.8850 H   0  0  0  0  0  0  0  0  0  0  0  0
   17.7480  -11.7640    1.1670 H   0  0  0  0  0  0  0  0  0  0  0  0
   16.0880  -12.2750    1.4860 H   0  0  0  0  0  0  0  0  0  0  0  0
   14.8730  -10.9070   -1.0180 H   0  0  0  0  0  0  0  0  0  0  0  0
   14.4410  -12.5000   -0.4050 H   0  0  0  0  0  0  0  0  0  0  0  0
   14.9750  -12.3160   -2.0860 H   0  0  0  0  0  0  0  0  0  0  0  0
   17.0630  -10.2460   -1.4960 H   0  0  0  0  0  0  0  0  0  0  0  0
   17.3580  -11.6120   -2.5880 H   0  0  0  0  0  0  0  0  0  0  0  0
   18.4730  -11.2640   -1.2560 H   0  0  0  0  0  0  0  0  0  0  0  0
   12.8930  -14.5540    2.7910 H   0  0  0  0  0  0  0  0  0  0  0  0
   13.8380  -13.4980    1.6890 H   0  0  0  0  0  0  0  0  0  0  0  0
   12.0030  -13.6140    0.0460 H   0  0  0  0  0  0  0  0  0  0  0  0
   11.4460  -12.9650    1.6340 H   0  0  0  0  0  0  0  0  0  0  0  0
    9.7390  -12.7450    0.0230 H   0  0  0  0  0  0  0  0  0  0  0  0
    7.3950  -10.2050   -1.3310 H   0  0  0  0  0  0  0  0  0  0  0  0
    8.7770  -11.3020   -1.6350 H   0  0  0  0  0  0  0  0  0  0  0  0
    8.5220  -10.6000    0.0030 H   0  0  0  0  0  0  0  0  0  0  0  0
    3.2540  -15.8700    3.5280 H   0  0  0  0  0  0  0  0  0  0  0  0
  1  2  1  0  0  0  0
  1 71  1  0  0  0  0
  1 72  1  0  0  0  0
  1 73  1  0  0  0  0
  2  3  1  0  0  0  0
  2 74  1  0  0  0  0
  3  4  2  0  0  0  0
  3  5  1  0  0  0  0
  5  6  1  0  0  0  0
  5 10  2  0  0  0  0
  6  7  2  0  0  0  0
  6 75  1  0  0  0  0
  7  8  1  0  0  0  0
  7 76  1  0  0  0  0
  8  9  2  0  0  0  0
  8 77  1  0  0  0  0
  9 10  1  0  0  0  0
  9 78  1  0  0  0  0
 10 11  1  0  0  0  0
 11 12  1  0  0  0  0
 11 79  1  0  0  0  0
 12 13  1  0  0  0  0
 12 66  2  0  0  0  0
 13 14  2  0  0  0  0
 13 80  1  0  0  0  0
 14 15  1  0  0  0  0
 14 64  1  0  0  0  0
 15 16  1  0  0  0  0
 15 81  1  0  0  0  0
 16 17  1  0  0  0  0
 16 61  2  0  0  0  0
 17 18  2  0  0  0  0
 17 82  1  0  0  0  0
 18 19  1  0  0  0  0
 18 83  1  0  0  0  0
 19 20  1  0  0  0  0
 19 60  2  0  0  0  0
 20 21  1  0  0  0  0
 20 59  1  0  0  0  0
 21 22  1  0  0  0  0
 21 84  1  0  0  0  0
 21 85  1  0  0  0  0
 22 23  1  0  0  0  0
 22 86  1  0  0  0  0
 22 87  1  0  0  0  0
 23 24  1  0  0  0  0
 23 58  1  0  0  0  0
 24 25  1  0  0  0  0
 24 88  1  0  0  0  0
 24 89  1  0  0  0  0
 25 26  2  0  0  0  0
 25 27  1  0  0  0  0
 27 28  1  0  0  0  0
 27 90  1  0  0  0  0
 28 29  1  0  0  0  0
 28 54  1  0  0  0  0
 28 91  1  0  0  0  0
 29 30  2  0  0  0  0
 29 31  1  0  0  0  0
 31 32  1  0  0  0  0
 31 36  1  0  0  0  0
 32 33  1  0  0  0  0
 32 92  1  0  0  0  0
 32 93  1  0  0  0  0
 33 34  1  0  0  0  0
 33 35  1  0  0  0  0
 33 94  1  0  0  0  0
 34 95  1  0  0  0  0
 35 36  1  0  0  0  0
 35 96  1  0  0  0  0
 35 97  1  0  0  0  0
 36 37  1  0  0  0  0
 36 98  1  0  0  0  0
 37 38  2  0  0  0  0
 37 39  1  0  0  0  0
 39 40  1  0  0  0  0
 39 99  1  0  0  0  0
 40 41  1  0  0  0  0
 40 42  1  0  0  0  0
 40100  1  0  0  0  0
 41101  1  0  0  0  0
 41102  1  0  0  0  0
 41103  1  0  0  0  0
 42 43  1  0  0  0  0
 42 53  2  0  0  0  0
 43 44  2  0  0  0  0
 43104  1  0  0  0  0
 44 45  1  0  0  0  0
 44105  1  0  0  0  0
 45 46  1  0  0  0  0
 45 52  2  0  0  0  0
 46 47  2  0  0  0  0
 46 51  1  0  0  0  0
 47 48  1  0  0  0  0
 47 49  1  0  0  0  0
 48106  1  0  0  0  0
 48107  1  0  0  0  0
 48108  1  0  0  0  0
 49 50  2  0  0  0  0
 50 51  1  0  0  0  0
 50109  1  0  0  0  0
 52 53  1  0  0  0  0
 52110  1  0  0  0  0
 53111  1  0  0  0  0
 54 55  1  0  0  0  0
 54 56  1  0  0  0  0
 54 57  1  0  0  0  0
 55112  1  0  0  0  0
 55113  1  0  0  0  0
 55114  1  0  0  0  0
 56115  1  0  0  0  0
 56116  1  0  0  0  0
 56117  1  0  0  0  0
 57118  1  0  0  0  0
 57119  1  0  0  0  0
 57120  1  0  0  0  0
 58 59  1  0  0  0  0
 58121  1  0  0  0  0
 58122  1  0  0  0  0
 59123  1  0  0  0  0
 59124  1  0  0  0  0
 60 61  1  0  0  0  0
 60125  1  0  0  0  0
 61 62  1  0  0  0  0
 62 63  1  0  0  0  0
 63126  1  0  0  0  0
 63127  1  0  0  0  0
 63128  1  0  0  0  0
 64 65  2  0  0  0  0
 65 66  1  0  0  0  0
 65129  1  0  0  0  0
 66 67  1  0  0  0  0
 67 68  1  0  0  0  0
 67 69  1  0  0  0  0
 67 70  1  0  0  0  0
M  END
>  <Compound ID>
2892

>  <Uniprot>
Q05397

>  <Target>
FAK

>  <E3 ligase>
VHL

>  <DC50 (nM)>
4

>  <Assay (DC50/Dmax)>
Degradation of FAK in A549 cells after 24 h treatment

>  <IC50 (nM, Protac to Target)>
1.58

>  <Assay (Protac to Target, IC50)>
IC50 was assessed by FRET

>  <Article DOI>
10.1002/anie.202109237

>  <Molecular Weight>
985.14697

>  <Exact Mass>
984.4292

>  <XLogP3>
7.4000001

>  <Heavy Atom Count>
70

>  <Ring Count>
7

>  <Hydrogen Bond Acceptor Count>
13

>  <Hydrogen Bond Donor Count>
6

>  <Rotatable Bond Count>
15

>  <Topological Polar Surface Area>
193.39

>  <Molecular Formula>
C50H59F3N10O6S

>  <InChI>
InChI=1S/C50H59F3N10O6S/c1-29(31-12-14-32(15-13-31)44-30(2)56-28-70-44)57-47(67)40-23-34(64)26-63(40)48(68)45(49(3,4)5)60-43(65)27-61-18-20-62(21-19-61)33-16-17-38(41(22-33)69-7)59-42-24-39(36(25-55-42)50(51,52)53)58-37-11-9-8-10-35(37)46(66)54-6/h8-17,22,24-25,28-29,34,40,45,64H,18-21,23,26-27H2,1-7H3,(H,54,66)(H,57,67)(H,60,65)(H2,55,58,59)/t29-,34+,40-,45+/m0/s1

>  <InChI Key>
ZGSWGXNEXAXEGV-XFCHVEHOSA-N

>  <Name>
GSK215

>  <IC50 (nM, Protac to E3)>
1000

>  <Assay (Protac to E3, IC50)>
PF

>  <IC50 (nM, Ternary complex)>
1.26

>  <Assay (Ternary complex, IC50)>
IC50 between VHL and the complex of protac and FAK was tested by FRET

>  <PDB>
7PI4

$$$$
