3213
  MOE2018           3D

211221  0  0  1  0  0  0  0  0999 V2000
   33.5780  -24.9580   -0.2290 C   0  0  0  0  0  0  0  0  0  0  0  0
   33.3170  -26.4260   -0.4780 C   0  0  0  0  0  0  0  0  0  0  0  0
   32.1200  -26.9570   -0.8880 C   0  0  0  0  0  0  0  0  0  0  0  0
   30.8520  -26.2880   -1.1520 C   0  0  0  0  0  0  0  0  0  0  0  0
   30.1290  -26.5670   -2.3170 C   0  0  0  0  0  0  0  0  0  0  0  0
   28.9130  -25.9420   -2.5690 C   0  0  0  0  0  0  0  0  0  0  0  0
   28.3860  -25.0210   -1.6640 C   0  0  0  0  0  0  0  0  0  0  0  0
   27.0420  -24.3720   -1.9620 C   0  0  2  0  0  0  0  0  0  0  0  0
   27.2240  -22.8530   -2.0480 C   0  0  0  0  0  0  0  0  0  0  0  0
   26.1850  -24.6300   -0.8240 N   0  0  0  0  0  0  0  0  0  0  0  0
   24.8900  -24.9340   -0.9290 C   0  0  0  0  0  0  0  0  0  0  0  0
   24.3310  -24.9780   -2.0210 O   0  0  0  0  0  0  0  0  0  0  0  0
   24.0680  -25.2000    0.3620 C   0  0  2  0  0  0  0  0  0  0  0  0
   23.0890  -24.0300    0.5720 C   0  0  0  0  0  0  0  0  0  0  0  0
   23.0790  -23.7400    2.0690 C   0  0  1  0  0  0  0  0  0  0  0  0
   22.0520  -24.4950    2.6840 O   0  0  0  0  0  0  0  0  0  0  0  0
   24.4770  -24.1800    2.5060 C   0  0  0  0  0  0  0  0  0  0  0  0
   24.8350  -25.2710    1.6150 N   0  0  0  0  0  0  0  0  0  0  0  0
   25.9350  -26.0190    1.8130 C   0  0  0  0  0  0  0  0  0  0  0  0
   26.9960  -25.4300    2.0120 O   0  0  0  0  0  0  0  0  0  0  0  0
   25.8110  -27.5530    2.0710 C   0  0  1  0  0  0  0  0  0  0  0  0
   24.4380  -27.9340    2.4560 N   0  0  0  0  0  0  0  0  0  0  0  0
   24.1390  -28.7240    3.4830 C   0  0  0  0  0  0  0  0  0  0  0  0
   24.9870  -29.2510    4.1880 O   0  0  0  0  0  0  0  0  0  0  0  0
   22.6580  -28.9440    3.7560 C   0  0  0  0  0  0  0  0  0  0  0  0
   21.9300  -29.6390    2.5820 C   0  0  0  0  0  0  0  0  0  0  0  0
   20.5160  -29.0730    2.3530 C   0  0  0  0  0  0  0  0  0  0  0  0
   20.4770  -27.6120    1.8680 C   0  0  0  0  0  0  0  0  0  0  0  0
   21.5320  -27.0320    1.6030 O   0  0  0  0  0  0  0  0  0  0  0  0
   19.2870  -26.9740    1.7570 N   0  0  0  0  0  0  0  0  0  0  0  0
   19.2830  -25.4930    1.5530 C   0  0  0  0  0  0  0  0  0  0  0  0
   18.1220  -25.1210    0.6010 C   0  0  0  0  0  0  0  0  0  0  0  0
   16.8480  -25.6320    1.1920 N   0  3  0  0  0  0  0  0  0  0  0  0
   15.7200  -25.1600    0.3450 C   0  0  0  0  0  0  0  0  0  0  0  0
   14.5250  -24.7260    1.2580 C   0  0  1  0  0  0  0  0  0  0  0  0
   14.0040  -25.9340    2.0750 C   0  0  0  0  0  0  0  0  0  0  0  0
   15.0170  -23.6330    2.2590 C   0  0  0  0  0  0  0  0  0  0  0  0
   13.8560  -22.7050    2.6580 C   0  0  0  0  0  0  0  0  0  0  0  0
   13.4930  -21.9960    1.3700 C   0  0  0  0  0  0  0  0  0  0  0  0
   13.3970  -20.5410    1.4270 C   0  0  0  0  0  0  0  0  0  0  0  0
   14.2130  -19.7300    0.6260 C   0  0  0  0  0  0  0  0  0  0  0  0
   14.0920  -18.3460    0.6630 C   0  0  0  0  0  0  0  0  0  0  0  0
   13.1590  -17.7510    1.5120 C   0  0  0  0  0  0  0  0  0  0  0  0
   12.9940  -16.0270    1.5470 Cl  0  0  0  0  0  0  0  0  0  0  0  0
   12.3590  -18.5450    2.3360 C   0  0  0  0  0  0  0  0  0  0  0  0
   12.4830  -19.9280    2.2960 C   0  0  0  0  0  0  0  0  0  0  0  0
   13.2700  -22.7270    0.2550 C   0  0  0  0  0  0  0  0  0  0  0  0
   12.8400  -22.0900   -1.0580 C   0  0  0  0  0  0  0  0  0  0  0  0
   11.4000  -22.3490   -1.1410 N   0  3  0  0  0  0  0  0  0  0  0  0
   10.9690  -22.0800   -2.5540 C   0  0  0  0  0  0  0  0  0  0  0  0
    9.4540  -22.3800   -2.6860 C   0  0  0  0  0  0  0  0  0  0  0  0
    8.7550  -21.4780   -1.7380 N   0  0  0  0  0  0  0  0  0  0  0  0
    7.4290  -21.0870   -2.0010 C   0  0  0  0  0  0  0  0  0  0  0  0
    6.9250  -19.9320   -1.3920 C   0  0  0  0  0  0  0  0  0  0  0  0
    5.6310  -19.5110   -1.6620 C   0  0  0  0  0  0  0  0  0  0  0  0
    4.8040  -20.2220   -2.5500 C   0  0  0  0  0  0  0  0  0  0  0  0
    3.4460  -19.7400   -2.8310 C   0  0  0  0  0  0  0  0  0  0  0  0
    2.9980  -18.7020   -2.3750 O   0  0  0  0  0  0  0  0  0  0  0  0
    2.6330  -20.4940   -3.6080 N   0  0  0  0  0  0  0  0  0  0  0  0
    1.1210  -19.9930   -4.0460 S   0  0  0  0  0  0  0  0  0  0  0  0
    0.6250  -20.9570   -4.9560 O   0  0  0  0  0  0  0  0  0  0  0  0
    1.1690  -18.6590   -4.5170 O   0  0  0  0  0  0  0  0  0  0  0  0
    0.1140  -20.0550   -2.5420 C   0  0  0  0  0  0  0  0  0  0  0  0
   -0.0070  -18.9340   -1.7190 C   0  0  0  0  0  0  0  0  0  0  0  0
   -0.8330  -18.9600   -0.6070 C   0  0  0  0  0  0  0  0  0  0  0  0
   -1.5780  -20.1020   -0.3050 C   0  0  0  0  0  0  0  0  0  0  0  0
   -2.4240  -19.9890    0.8100 N   0  0  0  0  0  0  0  0  0  0  0  0
   -3.8430  -19.6390    0.6120 C   0  0  2  0  0  0  0  0  0  0  0  0
   -3.9230  -18.2290   -0.0040 C   0  0  0  0  0  0  0  0  0  0  0  0
   -5.4020  -17.9910   -0.3870 C   0  0  0  0  0  0  0  0  0  0  0  0
   -5.5710  -16.6970   -1.1190 N   0  3  0  0  0  0  0  0  0  0  0  0
   -5.0540  -15.5450   -0.3050 C   0  0  0  0  0  0  0  0  0  0  0  0
   -5.3600  -14.2460   -1.0860 C   0  0  0  0  0  0  0  0  0  0  0  0
   -4.6900  -14.3470   -2.3410 O   0  0  0  0  0  0  0  0  0  0  0  0
   -5.1390  -15.4130   -3.1770 C   0  0  0  0  0  0  0  0  0  0  0  0
   -4.8300  -16.7320   -2.4300 C   0  0  0  0  0  0  0  0  0  0  0  0
   -4.4970  -19.7020    2.0080 C   0  0  0  0  0  0  0  0  0  0  0  0
   -4.4330  -21.4600    2.5070 S   0  0  0  0  0  0  0  0  0  0  0  0
   -5.9430  -21.7060    3.3490 C   0  0  0  0  0  0  0  0  0  0  0  0
   -6.4670  -20.7320    4.2100 C   0  0  0  0  0  0  0  0  0  0  0  0
   -7.6830  -20.9490    4.8480 C   0  0  0  0  0  0  0  0  0  0  0  0
   -8.3800  -22.1370    4.6440 C   0  0  0  0  0  0  0  0  0  0  0  0
   -7.8550  -23.1130    3.8020 C   0  0  0  0  0  0  0  0  0  0  0  0
   -6.6400  -22.9030    3.1600 C   0  0  0  0  0  0  0  0  0  0  0  0
   -1.4450  -21.2650   -1.0910 C   0  0  0  0  0  0  0  0  0  0  0  0
   -2.3170  -22.8140   -0.7480 S   0  0  0  0  0  0  0  0  0  0  0  0
   -3.6910  -22.5260   -0.5060 O   0  0  0  0  0  0  0  0  0  0  0  0
   -2.0730  -23.7030   -1.8340 O   0  0  0  0  0  0  0  0  0  0  0  0
   -1.4660  -23.4650    0.8190 C   0  0  0  0  0  0  0  0  0  0  0  0
   -0.1470  -23.7330    0.6450 F   0  0  0  0  0  0  0  0  0  0  0  0
   -1.4870  -22.6000    1.8600 F   0  0  0  0  0  0  0  0  0  0  0  0
   -1.9870  -24.6120    1.3130 F   0  0  0  0  0  0  0  0  0  0  0  0
   -0.6070  -21.2070   -2.2120 C   0  0  0  0  0  0  0  0  0  0  0  0
    5.3270  -21.3810   -3.1570 C   0  0  0  0  0  0  0  0  0  0  0  0
    6.6170  -21.8130   -2.8830 C   0  0  0  0  0  0  0  0  0  0  0  0
    9.1640  -21.6260   -0.3150 C   0  0  0  0  0  0  0  0  0  0  0  0
   10.6910  -21.3580   -0.2530 C   0  0  0  0  0  0  0  0  0  0  0  0
   13.3500  -24.2510    0.3190 C   0  0  0  0  0  0  0  0  0  0  0  0
   16.9100  -27.1260    1.1360 C   0  0  0  0  0  0  0  0  0  0  0  0
   17.9890  -27.6010    2.1430 C   0  0  0  0  0  0  0  0  0  0  0  0
   26.3380  -28.4690    0.9120 C   0  0  0  0  0  0  0  0  0  0  0  0
   26.3760  -29.9470    1.3590 C   0  0  0  0  0  0  0  0  0  0  0  0
   27.7890  -28.1120    0.5360 C   0  0  0  0  0  0  0  0  0  0  0  0
   25.4910  -28.4140   -0.3740 C   0  0  0  0  0  0  0  0  0  0  0  0
   29.1040  -24.7380   -0.4980 C   0  0  0  0  0  0  0  0  0  0  0  0
   30.3180  -25.3660   -0.2450 C   0  0  0  0  0  0  0  0  0  0  0  0
   32.2770  -28.6560   -1.0690 S   0  0  0  0  0  0  0  0  0  0  0  0
   33.9150  -28.5290   -0.5640 C   0  0  0  0  0  0  0  0  0  0  0  0
   34.3200  -27.3220   -0.2910 N   0  0  0  0  0  0  0  0  0  0  0  0
   32.6700  -24.3890   -0.4270 H   0  0  0  0  0  0  0  0  0  0  0  0
   34.3740  -24.6130   -0.8890 H   0  0  0  0  0  0  0  0  0  0  0  0
   33.8790  -24.8130    0.8090 H   0  0  0  0  0  0  0  0  0  0  0  0
   30.5210  -27.2770   -3.0300 H   0  0  0  0  0  0  0  0  0  0  0  0
   28.3710  -26.1720   -3.4740 H   0  0  0  0  0  0  0  0  0  0  0  0
   26.6300  -24.7610   -2.8930 H   0  0  0  0  0  0  0  0  0  0  0  0
   27.6370  -22.4830   -1.1090 H   0  0  0  0  0  0  0  0  0  0  0  0
   26.2590  -22.3810   -2.2320 H   0  0  0  0  0  0  0  0  0  0  0  0
   27.9060  -22.6140   -2.8640 H   0  0  0  0  0  0  0  0  0  0  0  0
   26.5900  -24.5770    0.1000 H   0  0  0  0  0  0  0  0  0  0  0  0
   23.6100  -26.1740    0.1890 H   0  0  0  0  0  0  0  0  0  0  0  0
   22.0910  -24.3090    0.2350 H   0  0  0  0  0  0  0  0  0  0  0  0
   23.4260  -23.1530    0.0200 H   0  0  0  0  0  0  0  0  0  0  0  0
   22.8790  -22.7030    2.3370 H   0  0  0  0  0  0  0  0  0  0  0  0
   22.2000  -25.4180    2.4660 H   0  0  0  0  0  0  0  0  0  0  0  0
   24.4630  -24.5220    3.5410 H   0  0  0  0  0  0  0  0  0  0  0  0
   25.1850  -23.3570    2.4050 H   0  0  0  0  0  0  0  0  0  0  0  0
   26.4820  -27.7370    2.9100 H   0  0  0  0  0  0  0  0  0  0  0  0
   23.6750  -27.5710    1.9030 H   0  0  0  0  0  0  0  0  0  0  0  0
   22.5560  -29.5650    4.6460 H   0  0  0  0  0  0  0  0  0  0  0  0
   22.1890  -27.9760    3.9330 H   0  0  0  0  0  0  0  0  0  0  0  0
   21.8500  -30.7040    2.8000 H   0  0  0  0  0  0  0  0  0  0  0  0
   22.5150  -29.4970    1.6740 H   0  0  0  0  0  0  0  0  0  0  0  0
   19.9700  -29.1330    3.2950 H   0  0  0  0  0  0  0  0  0  0  0  0
   20.0200  -29.6920    1.6060 H   0  0  0  0  0  0  0  0  0  0  0  0
   19.1450  -24.9920    2.5110 H   0  0  0  0  0  0  0  0  0  0  0  0
   20.2310  -25.1820    1.1130 H   0  0  0  0  0  0  0  0  0  0  0  0
   18.2850  -25.5780   -0.3750 H   0  0  0  0  0  0  0  0  0  0  0  0
   18.0690  -24.0380    0.4910 H   0  0  0  0  0  0  0  0  0  0  0  0
   16.7200  -25.3110    2.1410 H   0  0  0  0  0  0  0  0  0  0  0  0
   16.0470  -24.3100   -0.2540 H   0  0  0  0  0  0  0  0  0  0  0  0
   15.3990  -25.9670   -0.3140 H   0  0  0  0  0  0  0  0  0  0  0  0
   13.1730  -25.6160    2.7050 H   0  0  0  0  0  0  0  0  0  0  0  0
   14.8070  -26.3220    2.7020 H   0  0  0  0  0  0  0  0  0  0  0  0
   13.6650  -26.7140    1.3940 H   0  0  0  0  0  0  0  0  0  0  0  0
   15.4130  -24.1170    3.1520 H   0  0  0  0  0  0  0  0  0  0  0  0
   15.8020  -23.0420    1.7870 H   0  0  0  0  0  0  0  0  0  0  0  0
   14.1750  -21.9900    3.4170 H   0  0  0  0  0  0  0  0  0  0  0  0
   13.0110  -23.2820    3.0340 H   0  0  0  0  0  0  0  0  0  0  0  0
   14.9430  -20.1850   -0.0270 H   0  0  0  0  0  0  0  0  0  0  0  0
   14.7200  -17.7320    0.0350 H   0  0  0  0  0  0  0  0  0  0  0  0
   11.6450  -18.0850    3.0030 H   0  0  0  0  0  0  0  0  0  0  0  0
   11.8690  -20.5380    2.9410 H   0  0  0  0  0  0  0  0  0  0  0  0
   13.3620  -22.5490   -1.8970 H   0  0  0  0  0  0  0  0  0  0  0  0
   13.0380  -21.0180   -1.0490 H   0  0  0  0  0  0  0  0  0  0  0  0
   11.1890  -23.2970   -0.8650 H   0  0  0  0  0  0  0  0  0  0  0  0
   11.1570  -21.0350   -2.8010 H   0  0  0  0  0  0  0  0  0  0  0  0
   11.5290  -22.7210   -3.2350 H   0  0  0  0  0  0  0  0  0  0  0  0
    9.2540  -23.4210   -2.4310 H   0  0  0  0  0  0  0  0  0  0  0  0
    9.1200  -22.1850   -3.7050 H   0  0  0  0  0  0  0  0  0  0  0  0
    7.5440  -19.3680   -0.7110 H   0  0  0  0  0  0  0  0  0  0  0  0
    5.2520  -18.6210   -1.1820 H   0  0  0  0  0  0  0  0  0  0  0  0
    2.9620  -21.3930   -3.9310 H   0  0  0  0  0  0  0  0  0  0  0  0
    0.5490  -18.0380   -1.9510 H   0  0  0  0  0  0  0  0  0  0  0  0
   -0.9010  -18.0910    0.0310 H   0  0  0  0  0  0  0  0  0  0  0  0
   -2.0640  -20.1460    1.7400 H   0  0  0  0  0  0  0  0  0  0  0  0
   -4.3600  -20.3160   -0.0680 H   0  0  0  0  0  0  0  0  0  0  0  0
   -3.5990  -17.4840    0.7220 H   0  0  0  0  0  0  0  0  0  0  0  0
   -3.2920  -18.1710   -0.8910 H   0  0  0  0  0  0  0  0  0  0  0  0
   -6.0050  -17.9670    0.5210 H   0  0  0  0  0  0  0  0  0  0  0  0
   -5.7390  -18.8070   -1.0260 H   0  0  0  0  0  0  0  0  0  0  0  0
   -6.5590  -16.5710   -1.2860 H   0  0  0  0  0  0  0  0  0  0  0  0
   -5.5520  -15.5220    0.6640 H   0  0  0  0  0  0  0  0  0  0  0  0
   -3.9790  -15.6460   -0.1590 H   0  0  0  0  0  0  0  0  0  0  0  0
   -4.9920  -13.3810   -0.5340 H   0  0  0  0  0  0  0  0  0  0  0  0
   -6.4340  -14.1470   -1.2420 H   0  0  0  0  0  0  0  0  0  0  0  0
   -6.2110  -15.3250   -3.3530 H   0  0  0  0  0  0  0  0  0  0  0  0
   -4.6110  -15.3900   -4.1300 H   0  0  0  0  0  0  0  0  0  0  0  0
   -3.7580  -16.8150   -2.2490 H   0  0  0  0  0  0  0  0  0  0  0  0
   -5.1650  -17.5830   -3.0240 H   0  0  0  0  0  0  0  0  0  0  0  0
   -5.5300  -19.3580    1.9590 H   0  0  0  0  0  0  0  0  0  0  0  0
   -3.9420  -19.0860    2.7160 H   0  0  0  0  0  0  0  0  0  0  0  0
   -5.9260  -19.8130    4.3780 H   0  0  0  0  0  0  0  0  0  0  0  0
   -8.0890  -20.1930    5.5040 H   0  0  0  0  0  0  0  0  0  0  0  0
   -9.3260  -22.3010    5.1380 H   0  0  0  0  0  0  0  0  0  0  0  0
   -8.3930  -24.0360    3.6470 H   0  0  0  0  0  0  0  0  0  0  0  0
   -6.2330  -23.6670    2.5130 H   0  0  0  0  0  0  0  0  0  0  0  0
   -0.5150  -22.0800   -2.8410 H   0  0  0  0  0  0  0  0  0  0  0  0
    4.7140  -21.9420   -3.8470 H   0  0  0  0  0  0  0  0  0  0  0  0
    6.9960  -22.7100   -3.3500 H   0  0  0  0  0  0  0  0  0  0  0  0
    8.6320  -20.9040    0.3050 H   0  0  0  0  0  0  0  0  0  0  0  0
    8.9460  -22.6350    0.0340 H   0  0  0  0  0  0  0  0  0  0  0  0
   11.0410  -21.4710    0.7730 H   0  0  0  0  0  0  0  0  0  0  0  0
   10.8980  -20.3450   -0.5980 H   0  0  0  0  0  0  0  0  0  0  0  0
   12.4080  -24.6400    0.7050 H   0  0  0  0  0  0  0  0  0  0  0  0
   13.5190  -24.6400   -0.6850 H   0  0  0  0  0  0  0  0  0  0  0  0
   15.9410  -27.5460    1.4070 H   0  0  0  0  0  0  0  0  0  0  0  0
   17.1770  -27.4470    0.1290 H   0  0  0  0  0  0  0  0  0  0  0  0
   18.0770  -28.6870    2.1060 H   0  0  0  0  0  0  0  0  0  0  0  0
   17.7150  -27.2930    3.1520 H   0  0  0  0  0  0  0  0  0  0  0  0
   26.7440  -30.5650    0.5400 H   0  0  0  0  0  0  0  0  0  0  0  0
   25.3720  -30.2690    1.6340 H   0  0  0  0  0  0  0  0  0  0  0  0
   27.0390  -30.0500    2.2180 H   0  0  0  0  0  0  0  0  0  0  0  0
   28.1260  -28.7640   -0.2700 H   0  0  0  0  0  0  0  0  0  0  0  0
   28.4330  -28.2460    1.4050 H   0  0  0  0  0  0  0  0  0  0  0  0
   27.8340  -27.0740    0.2070 H   0  0  0  0  0  0  0  0  0  0  0  0
   25.9250  -29.0760   -1.1230 H   0  0  0  0  0  0  0  0  0  0  0  0
   25.4760  -27.3930   -0.7560 H   0  0  0  0  0  0  0  0  0  0  0  0
   24.4730  -28.7340   -0.1520 H   0  0  0  0  0  0  0  0  0  0  0  0
   28.7120  -24.0250    0.2120 H   0  0  0  0  0  0  0  0  0  0  0  0
   30.8560  -25.1390    0.6640 H   0  0  0  0  0  0  0  0  0  0  0  0
   34.5620  -29.3890   -0.4790 H   0  0  0  0  0  0  0  0  0  0  0  0
  1  2  1  0  0  0  0
  1110  1  0  0  0  0
  1111  1  0  0  0  0
  1112  1  0  0  0  0
  2  3  2  0  0  0  0
  2109  1  0  0  0  0
  3  4  1  0  0  0  0
  3107  1  0  0  0  0
  4  5  1  0  0  0  0
  4106  2  0  0  0  0
  5  6  2  0  0  0  0
  5113  1  0  0  0  0
  6  7  1  0  0  0  0
  6114  1  0  0  0  0
  7  8  1  0  0  0  0
  7105  2  0  0  0  0
  8  9  1  0  0  0  0
  8 10  1  0  0  0  0
  8115  1  0  0  0  0
  9116  1  0  0  0  0
  9117  1  0  0  0  0
  9118  1  0  0  0  0
 10 11  1  0  0  0  0
 10119  1  0  0  0  0
 11 12  2  0  0  0  0
 11 13  1  0  0  0  0
 13 14  1  0  0  0  0
 13 18  1  0  0  0  0
 13120  1  0  0  0  0
 14 15  1  0  0  0  0
 14121  1  0  0  0  0
 14122  1  0  0  0  0
 15 16  1  0  0  0  0
 15 17  1  0  0  0  0
 15123  1  0  0  0  0
 16124  1  0  0  0  0
 17 18  1  0  0  0  0
 17125  1  0  0  0  0
 17126  1  0  0  0  0
 18 19  1  0  0  0  0
 19 20  2  0  0  0  0
 19 21  1  0  0  0  0
 21 22  1  0  0  0  0
 21101  1  0  0  0  0
 21127  1  0  0  0  0
 22 23  1  0  0  0  0
 22128  1  0  0  0  0
 23 24  2  0  0  0  0
 23 25  1  0  0  0  0
 25 26  1  0  0  0  0
 25129  1  0  0  0  0
 25130  1  0  0  0  0
 26 27  1  0  0  0  0
 26131  1  0  0  0  0
 26132  1  0  0  0  0
 27 28  1  0  0  0  0
 27133  1  0  0  0  0
 27134  1  0  0  0  0
 28 29  2  0  0  0  0
 28 30  1  0  0  0  0
 30 31  1  0  0  0  0
 30100  1  0  0  0  0
 31 32  1  0  0  0  0
 31135  1  0  0  0  0
 31136  1  0  0  0  0
 32 33  1  0  0  0  0
 32137  1  0  0  0  0
 32138  1  0  0  0  0
 33 34  1  0  0  0  0
 33 99  1  0  0  0  0
 33139  1  0  0  0  0
 34 35  1  0  0  0  0
 34140  1  0  0  0  0
 34141  1  0  0  0  0
 35 36  1  0  0  0  0
 35 37  1  0  0  0  0
 35 98  1  0  0  0  0
 36142  1  0  0  0  0
 36143  1  0  0  0  0
 36144  1  0  0  0  0
 37 38  1  0  0  0  0
 37145  1  0  0  0  0
 37146  1  0  0  0  0
 38 39  1  0  0  0  0
 38147  1  0  0  0  0
 38148  1  0  0  0  0
 39 40  1  0  0  0  0
 39 47  2  0  0  0  0
 40 41  1  0  0  0  0
 40 46  2  0  0  0  0
 41 42  2  0  0  0  0
 41149  1  0  0  0  0
 42 43  1  0  0  0  0
 42150  1  0  0  0  0
 43 44  1  0  0  0  0
 43 45  2  0  0  0  0
 45 46  1  0  0  0  0
 45151  1  0  0  0  0
 46152  1  0  0  0  0
 47 48  1  0  0  0  0
 47 98  1  0  0  0  0
 48 49  1  0  0  0  0
 48153  1  0  0  0  0
 48154  1  0  0  0  0
 49 50  1  0  0  0  0
 49 97  1  0  0  0  0
 49155  1  0  0  0  0
 50 51  1  0  0  0  0
 50156  1  0  0  0  0
 50157  1  0  0  0  0
 51 52  1  0  0  0  0
 51158  1  0  0  0  0
 51159  1  0  0  0  0
 52 53  1  0  0  0  0
 52 96  1  0  0  0  0
 53 54  1  0  0  0  0
 53 95  2  0  0  0  0
 54 55  2  0  0  0  0
 54160  1  0  0  0  0
 55 56  1  0  0  0  0
 55161  1  0  0  0  0
 56 57  1  0  0  0  0
 56 94  2  0  0  0  0
 57 58  2  0  0  0  0
 57 59  1  0  0  0  0
 59 60  1  0  0  0  0
 59162  1  0  0  0  0
 60 61  2  0  0  0  0
 60 62  2  0  0  0  0
 60 63  1  0  0  0  0
 63 64  1  0  0  0  0
 63 93  2  0  0  0  0
 64 65  2  0  0  0  0
 64163  1  0  0  0  0
 65 66  1  0  0  0  0
 65164  1  0  0  0  0
 66 67  1  0  0  0  0
 66 85  2  0  0  0  0
 67 68  1  0  0  0  0
 67165  1  0  0  0  0
 68 69  1  0  0  0  0
 68 77  1  0  0  0  0
 68166  1  0  0  0  0
 69 70  1  0  0  0  0
 69167  1  0  0  0  0
 69168  1  0  0  0  0
 70 71  1  0  0  0  0
 70169  1  0  0  0  0
 70170  1  0  0  0  0
 71 72  1  0  0  0  0
 71 76  1  0  0  0  0
 71171  1  0  0  0  0
 72 73  1  0  0  0  0
 72172  1  0  0  0  0
 72173  1  0  0  0  0
 73 74  1  0  0  0  0
 73174  1  0  0  0  0
 73175  1  0  0  0  0
 74 75  1  0  0  0  0
 75 76  1  0  0  0  0
 75176  1  0  0  0  0
 75177  1  0  0  0  0
 76178  1  0  0  0  0
 76179  1  0  0  0  0
 77 78  1  0  0  0  0
 77180  1  0  0  0  0
 77181  1  0  0  0  0
 78 79  1  0  0  0  0
 79 80  1  0  0  0  0
 79 84  2  0  0  0  0
 80 81  2  0  0  0  0
 80182  1  0  0  0  0
 81 82  1  0  0  0  0
 81183  1  0  0  0  0
 82 83  2  0  0  0  0
 82184  1  0  0  0  0
 83 84  1  0  0  0  0
 83185  1  0  0  0  0
 84186  1  0  0  0  0
 85 86  1  0  0  0  0
 85 93  1  0  0  0  0
 86 87  2  0  0  0  0
 86 88  2  0  0  0  0
 86 89  1  0  0  0  0
 89 90  1  0  0  0  0
 89 91  1  0  0  0  0
 89 92  1  0  0  0  0
 93187  1  0  0  0  0
 94 95  1  0  0  0  0
 94188  1  0  0  0  0
 95189  1  0  0  0  0
 96 97  1  0  0  0  0
 96190  1  0  0  0  0
 96191  1  0  0  0  0
 97192  1  0  0  0  0
 97193  1  0  0  0  0
 98194  1  0  0  0  0
 98195  1  0  0  0  0
 99100  1  0  0  0  0
 99196  1  0  0  0  0
 99197  1  0  0  0  0
100198  1  0  0  0  0
100199  1  0  0  0  0
101102  1  0  0  0  0
101103  1  0  0  0  0
101104  1  0  0  0  0
102200  1  0  0  0  0
102201  1  0  0  0  0
102202  1  0  0  0  0
103203  1  0  0  0  0
103204  1  0  0  0  0
103205  1  0  0  0  0
104206  1  0  0  0  0
104207  1  0  0  0  0
104208  1  0  0  0  0
105106  1  0  0  0  0
105209  1  0  0  0  0
106210  1  0  0  0  0
107108  1  0  0  0  0
108109  2  0  0  0  0
108211  1  0  0  0  0
M  CHG  1  33   1
M  CHG  1  49   1
M  CHG  1  71   1
M  END
>  <Compound ID>
3213

>  <Uniprot>
P10415

>  <Target>
BCL2

>  <E3 ligase>
VHL

>  <Name>
PPC5

>  <Dmax (%)>
47

>  <Assay (DC50/Dmax)>
Degradation of BCL2 in 293T cells after 16 h treatment

>  <Article DOI>
10.1038/s41467-021-27210-x

>  <Molecular Weight>
1599.442

>  <Exact Mass>
1597.6049

>  <XLogP3>
10.87

>  <Heavy Atom Count>
109

>  <Ring Count>
11

>  <Hydrogen Bond Acceptor Count>
19

>  <Hydrogen Bond Donor Count>
5

>  <Rotatable Bond Count>
28

>  <Topological Polar Surface Area>
263.54001

>  <Molecular Formula>
C79H99ClF3N11O11S4

>  <InChI>
InChI=1S/C79H99ClF3N11O11S4/c1-53(55-15-17-57(18-16-55)72-54(2)84-52-107-72)85-75(99)68-45-63(95)49-94(68)76(100)73(77(3,4)5)87-70(96)13-10-14-71(97)93-39-35-91(36-40-93)51-78(6)31-29-66(56-19-23-60(80)24-20-56)59(47-78)48-90-33-37-92(38-34-90)62-25-21-58(22-26-62)74(98)88-109(103,104)65-27-28-67(69(46-65)108(101,102)79(81,82)83)86-61(30-32-89-41-43-105-44-42-89)50-106-64-11-8-7-9-12-64/h7-9,11-12,15-28,46,52-53,61,63,68,73,86,95H,10,13-14,29-45,47-51H2,1-6H3,(H,85,99)(H,87,96)(H,88,98)/t53-,61+,63+,68-,73+,78?/m0/s1

>  <InChI Key>
BRIZMACXBJUXJT-UWPVXNPMSA-N

$$$$
3214
  MOE2018           3D

214224  0  0  1  0  0  0  0  0999 V2000
   20.2040   29.7960   -2.1440 C   0  0  0  0  0  0  0  0  0  0  0  0
   20.2340   29.5500   -0.6540 C   0  0  0  0  0  0  0  0  0  0  0  0
   19.3510   30.0810    0.2510 C   0  0  0  0  0  0  0  0  0  0  0  0
   18.2020   30.9460    0.0210 C   0  0  0  0  0  0  0  0  0  0  0  0
   17.2170   30.6020   -0.9100 C   0  0  0  0  0  0  0  0  0  0  0  0
   16.1140   31.4230   -1.1160 C   0  0  0  0  0  0  0  0  0  0  0  0
   15.9590   32.6050   -0.3900 C   0  0  0  0  0  0  0  0  0  0  0  0
   14.7240   33.4720   -0.6310 C   0  0  2  0  0  0  0  0  0  0  0  0
   15.1070   34.5410   -1.6580 C   0  0  0  0  0  0  0  0  0  0  0  0
   14.3920   34.1900    0.5790 N   0  0  0  0  0  0  0  0  0  0  0  0
   13.8590   33.7240    1.7090 C   0  0  0  0  0  0  0  0  0  0  0  0
   13.8920   34.4860    2.6660 O   0  0  0  0  0  0  0  0  0  0  0  0
   13.2490   32.2990    1.9050 C   0  0  2  0  0  0  0  0  0  0  0  0
   14.2680   31.3330    2.5220 C   0  0  0  0  0  0  0  0  0  0  0  0
   13.7860   29.9480    2.1160 C   0  0  1  0  0  0  0  0  0  0  0  0
   12.8140   29.4890    3.0330 O   0  0  0  0  0  0  0  0  0  0  0  0
   13.1680   30.1940    0.7390 C   0  0  0  0  0  0  0  0  0  0  0  0
   12.6560   31.5660    0.7660 N   0  0  0  0  0  0  0  0  0  0  0  0
   11.5410   32.0410    0.1660 C   0  0  0  0  0  0  0  0  0  0  0  0
   11.2030   33.2070    0.3670 O   0  0  0  0  0  0  0  0  0  0  0  0
   10.6260   31.1470   -0.7310 C   0  0  1  0  0  0  0  0  0  0  0  0
    9.2240   31.5340   -0.5120 N   0  0  0  0  0  0  0  0  0  0  0  0
    8.2340   30.6830   -0.2690 C   0  0  0  0  0  0  0  0  0  0  0  0
    8.4120   29.4710   -0.2580 O   0  0  0  0  0  0  0  0  0  0  0  0
    6.8610   31.2960    0.0080 C   0  0  0  0  0  0  0  0  0  0  0  0
    5.7680   30.2590    0.3270 C   0  0  0  0  0  0  0  0  0  0  0  0
    4.4180   30.9410    0.5980 C   0  0  0  0  0  0  0  0  0  0  0  0
    3.3390   29.8960    0.9370 C   0  0  0  0  0  0  0  0  0  0  0  0
    1.9570   30.4930    1.2390 C   0  0  0  0  0  0  0  0  0  0  0  0
    1.7450   31.6800    1.0240 O   0  0  0  0  0  0  0  0  0  0  0  0
    0.9610   29.6980    1.6900 N   0  0  0  0  0  0  0  0  0  0  0  0
   -0.3550   30.2880    2.0410 C   0  0  0  0  0  0  0  0  0  0  0  0
   -1.3030   29.9090    0.8780 C   0  0  0  0  0  0  0  0  0  0  0  0
   -1.3730   28.3990    0.8160 N   0  3  0  0  0  0  0  0  0  0  0  0
   -2.4580   27.9560   -0.1480 C   0  0  0  0  0  0  0  0  0  0  0  0
   -2.1870   28.0030   -1.7080 C   0  0  1  0  0  0  0  0  0  0  0  0
   -1.6290   29.3680   -2.1710 C   0  0  0  0  0  0  0  0  0  0  0  0
   -1.2280   26.9100   -2.2460 C   0  0  0  0  0  0  0  0  0  0  0  0
   -1.6930   25.5240   -1.7560 C   0  0  0  0  0  0  0  0  0  0  0  0
   -3.1280   25.3140   -2.2130 C   0  0  0  0  0  0  0  0  0  0  0  0
   -3.4920   23.9090   -2.3650 C   0  0  0  0  0  0  0  0  0  0  0  0
   -3.5660   23.0680   -1.2460 C   0  0  0  0  0  0  0  0  0  0  0  0
   -3.9420   21.7370   -1.3830 C   0  0  0  0  0  0  0  0  0  0  0  0
   -4.2370   21.2240   -2.6470 C   0  0  0  0  0  0  0  0  0  0  0  0
   -4.7220   19.5700   -2.8180 Cl  0  0  0  0  0  0  0  0  0  0  0  0
   -4.1360   22.0420   -3.7730 C   0  0  0  0  0  0  0  0  0  0  0  0
   -3.7590   23.3710   -3.6310 C   0  0  0  0  0  0  0  0  0  0  0  0
   -3.9740   26.3390   -2.4960 C   0  0  0  0  0  0  0  0  0  0  0  0
   -5.3550   26.0960   -3.0980 C   0  0  0  0  0  0  0  0  0  0  0  0
   -6.3270   26.2090   -2.0030 N   0  3  0  0  0  0  0  0  0  0  0  0
   -6.3130   24.9060   -1.2440 C   0  0  0  0  0  0  0  0  0  0  0  0
   -7.3700   24.9470   -0.1100 C   0  0  0  0  0  0  0  0  0  0  0  0
   -8.6760   25.1760   -0.7660 N   0  0  0  0  0  0  0  0  0  0  0  0
   -9.8440   24.6600   -0.1870 C   0  0  0  0  0  0  0  0  0  0  0  0
  -10.9330   24.3670   -1.0140 C   0  0  0  0  0  0  0  0  0  0  0  0
  -12.0830   23.8090   -0.4740 C   0  0  0  0  0  0  0  0  0  0  0  0
  -12.1790   23.5330    0.9010 C   0  0  0  0  0  0  0  0  0  0  0  0
  -13.4000   22.9250    1.4390 C   0  0  0  0  0  0  0  0  0  0  0  0
  -14.2780   22.4550    0.7350 O   0  0  0  0  0  0  0  0  0  0  0  0
  -13.5980   22.9240    2.7770 N   0  0  0  0  0  0  0  0  0  0  0  0
  -14.8040   22.0190    3.4510 S   0  0  0  0  0  0  0  0  0  0  0  0
  -14.7280   22.2220    4.8500 O   0  0  0  0  0  0  0  0  0  0  0  0
  -14.6840   20.6810    3.0050 O   0  0  0  0  0  0  0  0  0  0  0  0
  -16.3720   22.7050    2.8540 C   0  0  0  0  0  0  0  0  0  0  0  0
  -16.9490   23.8160    3.4700 C   0  0  0  0  0  0  0  0  0  0  0  0
  -18.1740   24.3040    3.0390 C   0  0  0  0  0  0  0  0  0  0  0  0
  -18.8530   23.6870    1.9850 C   0  0  0  0  0  0  0  0  0  0  0  0
  -20.1050   24.2420    1.6740 N   0  0  0  0  0  0  0  0  0  0  0  0
  -20.2550   25.2060    0.5700 C   0  0  2  0  0  0  0  0  0  0  0  0
  -19.4100   26.4490    0.8890 C   0  0  0  0  0  0  0  0  0  0  0  0
  -19.4420   27.3380   -0.3750 C   0  0  0  0  0  0  0  0  0  0  0  0
  -18.3630   28.3720   -0.3310 N   0  3  0  0  0  0  0  0  0  0  0  0
  -18.3860   29.1300    0.9710 C   0  0  0  0  0  0  0  0  0  0  0  0
  -17.2750   30.2040    0.9140 C   0  0  0  0  0  0  0  0  0  0  0  0
  -16.0410   29.5170    0.7130 O   0  0  0  0  0  0  0  0  0  0  0  0
  -15.9490   28.8200   -0.5270 C   0  0  0  0  0  0  0  0  0  0  0  0
  -17.0220   27.7090   -0.4950 C   0  0  0  0  0  0  0  0  0  0  0  0
  -21.7630   25.5130    0.4790 C   0  0  0  0  0  0  0  0  0  0  0  0
  -22.5400   23.9540   -0.0770 S   0  0  0  0  0  0  0  0  0  0  0  0
  -24.1460   24.3870   -0.6130 C   0  0  0  0  0  0  0  0  0  0  0  0
  -24.7770   23.5720   -1.5580 C   0  0  0  0  0  0  0  0  0  0  0  0
  -26.0500   23.8880   -2.0180 C   0  0  0  0  0  0  0  0  0  0  0  0
  -26.7080   25.0160   -1.5360 C   0  0  0  0  0  0  0  0  0  0  0  0
  -26.0900   25.8260   -0.5870 C   0  0  0  0  0  0  0  0  0  0  0  0
  -24.8170   25.5160   -0.1220 C   0  0  0  0  0  0  0  0  0  0  0  0
  -18.3040   22.5500    1.3550 C   0  0  0  0  0  0  0  0  0  0  0  0
  -19.1040   21.6580   -0.0030 S   0  0  0  0  0  0  0  0  0  0  0  0
  -19.6220   22.6040   -0.9350 O   0  0  0  0  0  0  0  0  0  0  0  0
  -18.1640   20.7390   -0.5490 O   0  0  0  0  0  0  0  0  0  0  0  0
  -20.5060   20.7140    0.8600 C   0  0  0  0  0  0  0  0  0  0  0  0
  -21.3180   21.5000    1.6080 F   0  0  0  0  0  0  0  0  0  0  0  0
  -21.3430   20.0520    0.0240 F   0  0  0  0  0  0  0  0  0  0  0  0
  -20.0740   19.7710    1.7310 F   0  0  0  0  0  0  0  0  0  0  0  0
  -17.0630   22.0890    1.8050 C   0  0  0  0  0  0  0  0  0  0  0  0
  -11.0770   23.8410    1.7210 C   0  0  0  0  0  0  0  0  0  0  0  0
   -9.9230   24.4000    1.1880 C   0  0  0  0  0  0  0  0  0  0  0  0
   -8.7790   26.4310   -1.5450 C   0  0  0  0  0  0  0  0  0  0  0  0
   -7.6860   26.3500   -2.6440 C   0  0  0  0  0  0  0  0  0  0  0  0
   -3.5610   27.8130   -2.4290 C   0  0  0  0  0  0  0  0  0  0  0  0
   -0.0130   27.8560    0.4710 C   0  0  0  0  0  0  0  0  0  0  0  0
    0.9710   28.2190    1.6170 C   0  0  0  0  0  0  0  0  0  0  0  0
   10.9750   31.1920   -2.2580 C   0  0  0  0  0  0  0  0  0  0  0  0
   12.3580   30.5750   -2.5340 C   0  0  0  0  0  0  0  0  0  0  0  0
    9.9790   30.3560   -3.0920 C   0  0  0  0  0  0  0  0  0  0  0  0
   10.9670   32.6250   -2.8270 C   0  0  0  0  0  0  0  0  0  0  0  0
   16.9550   32.9620    0.5260 C   0  0  0  0  0  0  0  0  0  0  0  0
   18.0560   32.1390    0.7330 C   0  0  0  0  0  0  0  0  0  0  0  0
   19.7670   29.5680    1.8340 S   0  0  0  0  0  0  0  0  0  0  0  0
   21.0690   28.6670    1.1660 C   0  0  0  0  0  0  0  0  0  0  0  0
   21.1940   28.7470   -0.1280 N   0  0  0  0  0  0  0  0  0  0  0  0
   19.3730   30.4590   -2.3860 H   0  0  0  0  0  0  0  0  0  0  0  0
   20.0760   28.8480   -2.6660 H   0  0  0  0  0  0  0  0  0  0  0  0
   21.1410   30.2590   -2.4550 H   0  0  0  0  0  0  0  0  0  0  0  0
   17.3140   29.6870   -1.4760 H   0  0  0  0  0  0  0  0  0  0  0  0
   15.3690   31.1430   -1.8460 H   0  0  0  0  0  0  0  0  0  0  0  0
   13.8940   32.8440   -0.9550 H   0  0  0  0  0  0  0  0  0  0  0  0
   15.9390   35.1320   -1.2740 H   0  0  0  0  0  0  0  0  0  0  0  0
   14.2520   35.1920   -1.8410 H   0  0  0  0  0  0  0  0  0  0  0  0
   15.4030   34.0600   -2.5900 H   0  0  0  0  0  0  0  0  0  0  0  0
   14.5910   35.1800    0.5670 H   0  0  0  0  0  0  0  0  0  0  0  0
   12.4070   32.5740    2.5400 H   0  0  0  0  0  0  0  0  0  0  0  0
   14.2820   31.4320    3.6070 H   0  0  0  0  0  0  0  0  0  0  0  0
   15.2660   31.5230    2.1270 H   0  0  0  0  0  0  0  0  0  0  0  0
   14.5710   29.1920    2.1000 H   0  0  0  0  0  0  0  0  0  0  0  0
   12.1110   30.1420    3.0620 H   0  0  0  0  0  0  0  0  0  0  0  0
   12.3560   29.4900    0.5570 H   0  0  0  0  0  0  0  0  0  0  0  0
   13.9230   30.0870   -0.0400 H   0  0  0  0  0  0  0  0  0  0  0  0
   10.7990   30.1140   -0.4300 H   0  0  0  0  0  0  0  0  0  0  0  0
    8.9980   32.5180   -0.5490 H   0  0  0  0  0  0  0  0  0  0  0  0
    6.9520   31.9720    0.8590 H   0  0  0  0  0  0  0  0  0  0  0  0
    6.5530   31.8600   -0.8720 H   0  0  0  0  0  0  0  0  0  0  0  0
    5.6610   29.5830   -0.5210 H   0  0  0  0  0  0  0  0  0  0  0  0
    6.0630   29.6910    1.2090 H   0  0  0  0  0  0  0  0  0  0  0  0
    4.1130   31.4960   -0.2890 H   0  0  0  0  0  0  0  0  0  0  0  0
    4.5260   31.6290    1.4370 H   0  0  0  0  0  0  0  0  0  0  0  0
    3.6680   29.3360    1.8130 H   0  0  0  0  0  0  0  0  0  0  0  0
    3.2410   29.2190    0.0890 H   0  0  0  0  0  0  0  0  0  0  0  0
   -0.7200   29.8730    2.9800 H   0  0  0  0  0  0  0  0  0  0  0  0
   -0.2750   31.3710    2.1290 H   0  0  0  0  0  0  0  0  0  0  0  0
   -0.9140   30.3020   -0.0610 H   0  0  0  0  0  0  0  0  0  0  0  0
   -2.2960   30.3200    1.0600 H   0  0  0  0  0  0  0  0  0  0  0  0
   -1.6300   28.0210    1.7170 H   0  0  0  0  0  0  0  0  0  0  0  0
   -2.6990   26.9220    0.1000 H   0  0  0  0  0  0  0  0  0  0  0  0
   -3.3260   28.5870    0.0410 H   0  0  0  0  0  0  0  0  0  0  0  0
   -1.4610   29.3460   -3.2480 H   0  0  0  0  0  0  0  0  0  0  0  0
   -0.6870   29.5670   -1.6610 H   0  0  0  0  0  0  0  0  0  0  0  0
   -2.3450   30.1540   -1.9310 H   0  0  0  0  0  0  0  0  0  0  0  0
   -1.2320   26.9290   -3.3360 H   0  0  0  0  0  0  0  0  0  0  0  0
   -0.2190   27.1030   -1.8830 H   0  0  0  0  0  0  0  0  0  0  0  0
   -1.6420   25.4810   -0.6680 H   0  0  0  0  0  0  0  0  0  0  0  0
   -1.0540   24.7490   -2.1800 H   0  0  0  0  0  0  0  0  0  0  0  0
   -3.3280   23.4580   -0.2670 H   0  0  0  0  0  0  0  0  0  0  0  0
   -4.0060   21.1010   -0.5130 H   0  0  0  0  0  0  0  0  0  0  0  0
   -4.3510   21.6420   -4.7530 H   0  0  0  0  0  0  0  0  0  0  0  0
   -3.6710   23.9970   -4.5060 H   0  0  0  0  0  0  0  0  0  0  0  0
   -5.4010   25.1000   -3.5380 H   0  0  0  0  0  0  0  0  0  0  0  0
   -5.5660   26.8420   -3.8640 H   0  0  0  0  0  0  0  0  0  0  0  0
   -6.1170   26.9850   -1.3920 H   0  0  0  0  0  0  0  0  0  0  0  0
   -6.5450   24.0880   -1.9260 H   0  0  0  0  0  0  0  0  0  0  0  0
   -5.3250   24.7500   -0.8120 H   0  0  0  0  0  0  0  0  0  0  0  0
   -7.1480   25.7590    0.5830 H   0  0  0  0  0  0  0  0  0  0  0  0
   -7.3800   24.0010    0.4310 H   0  0  0  0  0  0  0  0  0  0  0  0
  -10.8790   24.5750   -2.0720 H   0  0  0  0  0  0  0  0  0  0  0  0
  -12.9180   23.5830   -1.1210 H   0  0  0  0  0  0  0  0  0  0  0  0
  -13.0020   23.4830    3.3710 H   0  0  0  0  0  0  0  0  0  0  0  0
  -16.4380   24.3000    4.2890 H   0  0  0  0  0  0  0  0  0  0  0  0
  -18.6060   25.1680    3.5220 H   0  0  0  0  0  0  0  0  0  0  0  0
  -20.9150   23.9760    2.2160 H   0  0  0  0  0  0  0  0  0  0  0  0
  -19.9060   24.8270   -0.3910 H   0  0  0  0  0  0  0  0  0  0  0  0
  -19.8350   26.9850    1.7370 H   0  0  0  0  0  0  0  0  0  0  0  0
  -18.3850   26.1590    1.1190 H   0  0  0  0  0  0  0  0  0  0  0  0
  -20.4100   27.8350   -0.4360 H   0  0  0  0  0  0  0  0  0  0  0  0
  -19.2990   26.7110   -1.2550 H   0  0  0  0  0  0  0  0  0  0  0  0
  -18.5230   29.0250   -1.0850 H   0  0  0  0  0  0  0  0  0  0  0  0
  -19.3570   29.6080    1.1050 H   0  0  0  0  0  0  0  0  0  0  0  0
  -18.2000   28.4480    1.8000 H   0  0  0  0  0  0  0  0  0  0  0  0
  -17.2450   30.7620    1.8500 H   0  0  0  0  0  0  0  0  0  0  0  0
  -17.4600   30.8910    0.0880 H   0  0  0  0  0  0  0  0  0  0  0  0
  -16.1390   29.5020   -1.3560 H   0  0  0  0  0  0  0  0  0  0  0  0
  -14.9570   28.3810   -0.6380 H   0  0  0  0  0  0  0  0  0  0  0  0
  -16.8350   27.0370    0.3430 H   0  0  0  0  0  0  0  0  0  0  0  0
  -16.9990   27.1440   -1.4270 H   0  0  0  0  0  0  0  0  0  0  0  0
  -21.9480   26.3100   -0.2420 H   0  0  0  0  0  0  0  0  0  0  0  0
  -22.1520   25.8070    1.4540 H   0  0  0  0  0  0  0  0  0  0  0  0
  -24.2730   22.6930   -1.9320 H   0  0  0  0  0  0  0  0  0  0  0  0
  -26.5300   23.2570   -2.7510 H   0  0  0  0  0  0  0  0  0  0  0  0
  -27.6960   25.2620   -1.8970 H   0  0  0  0  0  0  0  0  0  0  0  0
  -26.6020   26.6990   -0.2100 H   0  0  0  0  0  0  0  0  0  0  0  0
  -24.3450   26.1450    0.6180 H   0  0  0  0  0  0  0  0  0  0  0  0
  -16.6220   21.2270    1.3260 H   0  0  0  0  0  0  0  0  0  0  0  0
  -11.1300   23.6390    2.7810 H   0  0  0  0  0  0  0  0  0  0  0  0
   -9.0880   24.6340    1.8320 H   0  0  0  0  0  0  0  0  0  0  0  0
   -9.7660   26.5140   -1.9990 H   0  0  0  0  0  0  0  0  0  0  0  0
   -8.6030   27.2920   -0.9000 H   0  0  0  0  0  0  0  0  0  0  0  0
   -7.7100   27.2580   -3.2460 H   0  0  0  0  0  0  0  0  0  0  0  0
   -7.8770   25.4870   -3.2810 H   0  0  0  0  0  0  0  0  0  0  0  0
   -3.4830   28.2030   -3.4440 H   0  0  0  0  0  0  0  0  0  0  0  0
   -4.3240   28.3680   -1.8840 H   0  0  0  0  0  0  0  0  0  0  0  0
   -0.0670   26.7730    0.3630 H   0  0  0  0  0  0  0  0  0  0  0  0
    0.3330   28.2980   -0.4640 H   0  0  0  0  0  0  0  0  0  0  0  0
    1.9730   27.8550    1.3890 H   0  0  0  0  0  0  0  0  0  0  0  0
    0.6340   27.7880    2.5600 H   0  0  0  0  0  0  0  0  0  0  0  0
   12.5700   30.6220   -3.6020 H   0  0  0  0  0  0  0  0  0  0  0  0
   12.3640   29.5350   -2.2080 H   0  0  0  0  0  0  0  0  0  0  0  0
   13.1200   31.1310   -1.9880 H   0  0  0  0  0  0  0  0  0  0  0  0
   10.2520   30.4100   -4.1460 H   0  0  0  0  0  0  0  0  0  0  0  0
    8.9720   30.7500   -2.9570 H   0  0  0  0  0  0  0  0  0  0  0  0
   10.0100   29.3180   -2.7620 H   0  0  0  0  0  0  0  0  0  0  0  0
   11.2150   32.5960   -3.8880 H   0  0  0  0  0  0  0  0  0  0  0  0
   11.7030   33.2300   -2.2980 H   0  0  0  0  0  0  0  0  0  0  0  0
    9.9770   33.0620   -2.6970 H   0  0  0  0  0  0  0  0  0  0  0  0
   16.8670   33.8860    1.0780 H   0  0  0  0  0  0  0  0  0  0  0  0
   18.8080   32.4260    1.4530 H   0  0  0  0  0  0  0  0  0  0  0  0
   21.7360   28.0760    1.7760 H   0  0  0  0  0  0  0  0  0  0  0  0
  1  2  1  0  0  0  0
  1111  1  0  0  0  0
  1112  1  0  0  0  0
  1113  1  0  0  0  0
  2  3  2  0  0  0  0
  2110  1  0  0  0  0
  3  4  1  0  0  0  0
  3108  1  0  0  0  0
  4  5  1  0  0  0  0
  4107  2  0  0  0  0
  5  6  2  0  0  0  0
  5114  1  0  0  0  0
  6  7  1  0  0  0  0
  6115  1  0  0  0  0
  7  8  1  0  0  0  0
  7106  2  0  0  0  0
  8  9  1  0  0  0  0
  8 10  1  0  0  0  0
  8116  1  0  0  0  0
  9117  1  0  0  0  0
  9118  1  0  0  0  0
  9119  1  0  0  0  0
 10 11  1  0  0  0  0
 10120  1  0  0  0  0
 11 12  2  0  0  0  0
 11 13  1  0  0  0  0
 13 14  1  0  0  0  0
 13 18  1  0  0  0  0
 13121  1  0  0  0  0
 14 15  1  0  0  0  0
 14122  1  0  0  0  0
 14123  1  0  0  0  0
 15 16  1  0  0  0  0
 15 17  1  0  0  0  0
 15124  1  0  0  0  0
 16125  1  0  0  0  0
 17 18  1  0  0  0  0
 17126  1  0  0  0  0
 17127  1  0  0  0  0
 18 19  1  0  0  0  0
 19 20  2  0  0  0  0
 19 21  1  0  0  0  0
 21 22  1  0  0  0  0
 21102  1  0  0  0  0
 21128  1  0  0  0  0
 22 23  1  0  0  0  0
 22129  1  0  0  0  0
 23 24  2  0  0  0  0
 23 25  1  0  0  0  0
 25 26  1  0  0  0  0
 25130  1  0  0  0  0
 25131  1  0  0  0  0
 26 27  1  0  0  0  0
 26132  1  0  0  0  0
 26133  1  0  0  0  0
 27 28  1  0  0  0  0
 27134  1  0  0  0  0
 27135  1  0  0  0  0
 28 29  1  0  0  0  0
 28136  1  0  0  0  0
 28137  1  0  0  0  0
 29 30  2  0  0  0  0
 29 31  1  0  0  0  0
 31 32  1  0  0  0  0
 31101  1  0  0  0  0
 32 33  1  0  0  0  0
 32138  1  0  0  0  0
 32139  1  0  0  0  0
 33 34  1  0  0  0  0
 33140  1  0  0  0  0
 33141  1  0  0  0  0
 34 35  1  0  0  0  0
 34100  1  0  0  0  0
 34142  1  0  0  0  0
 35 36  1  0  0  0  0
 35143  1  0  0  0  0
 35144  1  0  0  0  0
 36 37  1  0  0  0  0
 36 38  1  0  0  0  0
 36 99  1  0  0  0  0
 37145  1  0  0  0  0
 37146  1  0  0  0  0
 37147  1  0  0  0  0
 38 39  1  0  0  0  0
 38148  1  0  0  0  0
 38149  1  0  0  0  0
 39 40  1  0  0  0  0
 39150  1  0  0  0  0
 39151  1  0  0  0  0
 40 41  1  0  0  0  0
 40 48  2  0  0  0  0
 41 42  1  0  0  0  0
 41 47  2  0  0  0  0
 42 43  2  0  0  0  0
 42152  1  0  0  0  0
 43 44  1  0  0  0  0
 43153  1  0  0  0  0
 44 45  1  0  0  0  0
 44 46  2  0  0  0  0
 46 47  1  0  0  0  0
 46154  1  0  0  0  0
 47155  1  0  0  0  0
 48 49  1  0  0  0  0
 48 99  1  0  0  0  0
 49 50  1  0  0  0  0
 49156  1  0  0  0  0
 49157  1  0  0  0  0
 50 51  1  0  0  0  0
 50 98  1  0  0  0  0
 50158  1  0  0  0  0
 51 52  1  0  0  0  0
 51159  1  0  0  0  0
 51160  1  0  0  0  0
 52 53  1  0  0  0  0
 52161  1  0  0  0  0
 52162  1  0  0  0  0
 53 54  1  0  0  0  0
 53 97  1  0  0  0  0
 54 55  1  0  0  0  0
 54 96  2  0  0  0  0
 55 56  2  0  0  0  0
 55163  1  0  0  0  0
 56 57  1  0  0  0  0
 56164  1  0  0  0  0
 57 58  1  0  0  0  0
 57 95  2  0  0  0  0
 58 59  2  0  0  0  0
 58 60  1  0  0  0  0
 60 61  1  0  0  0  0
 60165  1  0  0  0  0
 61 62  2  0  0  0  0
 61 63  2  0  0  0  0
 61 64  1  0  0  0  0
 64 65  1  0  0  0  0
 64 94  2  0  0  0  0
 65 66  2  0  0  0  0
 65166  1  0  0  0  0
 66 67  1  0  0  0  0
 66167  1  0  0  0  0
 67 68  1  0  0  0  0
 67 86  2  0  0  0  0
 68 69  1  0  0  0  0
 68168  1  0  0  0  0
 69 70  1  0  0  0  0
 69 78  1  0  0  0  0
 69169  1  0  0  0  0
 70 71  1  0  0  0  0
 70170  1  0  0  0  0
 70171  1  0  0  0  0
 71 72  1  0  0  0  0
 71172  1  0  0  0  0
 71173  1  0  0  0  0
 72 73  1  0  0  0  0
 72 77  1  0  0  0  0
 72174  1  0  0  0  0
 73 74  1  0  0  0  0
 73175  1  0  0  0  0
 73176  1  0  0  0  0
 74 75  1  0  0  0  0
 74177  1  0  0  0  0
 74178  1  0  0  0  0
 75 76  1  0  0  0  0
 76 77  1  0  0  0  0
 76179  1  0  0  0  0
 76180  1  0  0  0  0
 77181  1  0  0  0  0
 77182  1  0  0  0  0
 78 79  1  0  0  0  0
 78183  1  0  0  0  0
 78184  1  0  0  0  0
 79 80  1  0  0  0  0
 80 81  1  0  0  0  0
 80 85  2  0  0  0  0
 81 82  2  0  0  0  0
 81185  1  0  0  0  0
 82 83  1  0  0  0  0
 82186  1  0  0  0  0
 83 84  2  0  0  0  0
 83187  1  0  0  0  0
 84 85  1  0  0  0  0
 84188  1  0  0  0  0
 85189  1  0  0  0  0
 86 87  1  0  0  0  0
 86 94  1  0  0  0  0
 87 88  2  0  0  0  0
 87 89  2  0  0  0  0
 87 90  1  0  0  0  0
 90 91  1  0  0  0  0
 90 92  1  0  0  0  0
 90 93  1  0  0  0  0
 94190  1  0  0  0  0
 95 96  1  0  0  0  0
 95191  1  0  0  0  0
 96192  1  0  0  0  0
 97 98  1  0  0  0  0
 97193  1  0  0  0  0
 97194  1  0  0  0  0
 98195  1  0  0  0  0
 98196  1  0  0  0  0
 99197  1  0  0  0  0
 99198  1  0  0  0  0
100101  1  0  0  0  0
100199  1  0  0  0  0
100200  1  0  0  0  0
101201  1  0  0  0  0
101202  1  0  0  0  0
102103  1  0  0  0  0
102104  1  0  0  0  0
102105  1  0  0  0  0
103203  1  0  0  0  0
103204  1  0  0  0  0
103205  1  0  0  0  0
104206  1  0  0  0  0
104207  1  0  0  0  0
104208  1  0  0  0  0
105209  1  0  0  0  0
105210  1  0  0  0  0
105211  1  0  0  0  0
106107  1  0  0  0  0
106212  1  0  0  0  0
107213  1  0  0  0  0
108109  1  0  0  0  0
109110  2  0  0  0  0
109214  1  0  0  0  0
M  CHG  1  34   1
M  CHG  1  50   1
M  CHG  1  72   1
M  END
>  <Compound ID>
3214

>  <Uniprot>
P10415

>  <Target>
BCL2

>  <E3 ligase>
VHL

>  <Name>
PPC6

>  <Dmax (%)>
47

>  <Assay (DC50/Dmax)>
Degradation of BCL2 in 293T cells after 16 h treatment

>  <Article DOI>
10.1038/s41467-021-27210-x

>  <Molecular Weight>
1613.469

>  <Exact Mass>
1611.6206

>  <XLogP3>
11.23

>  <Heavy Atom Count>
110

>  <Ring Count>
11

>  <Hydrogen Bond Acceptor Count>
19

>  <Hydrogen Bond Donor Count>
5

>  <Rotatable Bond Count>
29

>  <Topological Polar Surface Area>
263.54001

>  <Molecular Formula>
C80H101ClF3N11O11S4

>  <InChI>
InChI=1S/C80H101ClF3N11O11S4/c1-54(56-16-18-58(19-17-56)73-55(2)85-53-108-73)86-76(100)69-46-64(96)50-95(69)77(101)74(78(3,4)5)88-71(97)14-10-11-15-72(98)94-40-36-92(37-41-94)52-79(6)32-30-67(57-20-24-61(81)25-21-57)60(48-79)49-91-34-38-93(39-35-91)63-26-22-59(23-27-63)75(99)89-110(104,105)66-28-29-68(70(47-66)109(102,103)80(82,83)84)87-62(31-33-90-42-44-106-45-43-90)51-107-65-12-8-7-9-13-65/h7-9,12-13,16-29,47,53-54,62,64,69,74,87,96H,10-11,14-15,30-46,48-52H2,1-6H3,(H,86,100)(H,88,97)(H,89,99)/t54-,62+,64+,69-,74+,79?/m0/s1

>  <InChI Key>
KVQKGBLSBLWZKE-AAWIYDMSSA-N

$$$$
3215
  MOE2018           3D

217227  0  0  1  0  0  0  0  0999 V2000
   27.3470  -35.6780   -3.8270 C   0  0  0  0  0  0  0  0  0  0  0  0
   26.3580  -34.6080   -4.2240 C   0  0  0  0  0  0  0  0  0  0  0  0
   25.7040  -33.7730   -3.3530 C   0  0  0  0  0  0  0  0  0  0  0  0
   25.8060  -33.6830   -1.9020 C   0  0  0  0  0  0  0  0  0  0  0  0
   27.0520  -33.6120   -1.2690 C   0  0  0  0  0  0  0  0  0  0  0  0
   27.1450  -33.5310    0.1150 C   0  0  0  0  0  0  0  0  0  0  0  0
   25.9940  -33.5060    0.9040 C   0  0  0  0  0  0  0  0  0  0  0  0
   26.1300  -33.4350    2.4190 C   0  0  2  0  0  0  0  0  0  0  0  0
   25.7180  -34.7930    2.9940 C   0  0  0  0  0  0  0  0  0  0  0  0
   25.1890  -32.4690    2.9540 N   0  0  0  0  0  0  0  0  0  0  0  0
   25.2020  -31.1460    2.8090 C   0  0  0  0  0  0  0  0  0  0  0  0
   24.3850  -30.5120    3.4650 O   0  0  0  0  0  0  0  0  0  0  0  0
   26.2470  -30.4230    1.9010 C   0  0  2  0  0  0  0  0  0  0  0  0
   27.6160  -30.3430    2.5970 C   0  0  0  0  0  0  0  0  0  0  0  0
   28.1980  -28.9970    2.1810 C   0  0  1  0  0  0  0  0  0  0  0  0
   28.8510  -29.1460    0.9360 O   0  0  0  0  0  0  0  0  0  0  0  0
   26.9490  -28.1280    2.0450 C   0  0  0  0  0  0  0  0  0  0  0  0
   25.9170  -29.0320    1.5590 N   0  0  0  0  0  0  0  0  0  0  0  0
   24.7830  -28.5850    0.9800 C   0  0  0  0  0  0  0  0  0  0  0  0
   24.5510  -27.3750    0.9700 O   0  0  0  0  0  0  0  0  0  0  0  0
   23.7860  -29.5680    0.2900 C   0  0  1  0  0  0  0  0  0  0  0  0
   22.4350  -29.3820    0.8280 N   0  0  0  0  0  0  0  0  0  0  0  0
   21.6490  -30.3760    1.2320 C   0  0  0  0  0  0  0  0  0  0  0  0
   21.9550  -31.5560    1.1070 O   0  0  0  0  0  0  0  0  0  0  0  0
   20.2980  -29.9810    1.8120 C   0  0  0  0  0  0  0  0  0  0  0  0
   19.3330  -29.4830    0.7230 C   0  0  0  0  0  0  0  0  0  0  0  0
   18.0220  -28.9680    1.3300 C   0  0  0  0  0  0  0  0  0  0  0  0
   17.1050  -28.4440    0.2160 C   0  0  0  0  0  0  0  0  0  0  0  0
   15.8300  -27.8050    0.7950 C   0  0  0  0  0  0  0  0  0  0  0  0
   14.9000  -27.2010   -0.2670 C   0  0  0  0  0  0  0  0  0  0  0  0
   15.1080  -27.4290   -1.4520 O   0  0  0  0  0  0  0  0  0  0  0  0
   13.8590  -26.4210    0.1050 N   0  0  0  0  0  0  0  0  0  0  0  0
   13.5250  -26.1060    1.5220 C   0  0  0  0  0  0  0  0  0  0  0  0
   11.9870  -26.2340    1.6770 C   0  0  0  0  0  0  0  0  0  0  0  0
   11.3440  -25.3010    0.6990 N   0  3  0  0  0  0  0  0  0  0  0  0
    9.8730  -25.1320    1.0030 C   0  0  0  0  0  0  0  0  0  0  0  0
    8.8570  -26.2700    0.5800 C   0  0  2  0  0  0  0  0  0  0  0  0
    9.3030  -27.6820    1.0180 C   0  0  0  0  0  0  0  0  0  0  0  0
    8.5230  -26.3220   -0.9330 C   0  0  0  0  0  0  0  0  0  0  0  0
    8.1550  -24.9140   -1.4490 C   0  0  0  0  0  0  0  0  0  0  0  0
    7.1770  -24.2310   -0.4950 C   0  0  0  0  0  0  0  0  0  0  0  0
    6.5970  -22.9970   -1.0170 C   0  0  0  0  0  0  0  0  0  0  0  0
    6.8450  -21.7680   -0.3890 C   0  0  0  0  0  0  0  0  0  0  0  0
    6.2690  -20.5970   -0.8660 C   0  0  0  0  0  0  0  0  0  0  0  0
    5.4420  -20.6360   -1.9890 C   0  0  0  0  0  0  0  0  0  0  0  0
    4.7080  -19.1810   -2.5760 Cl  0  0  0  0  0  0  0  0  0  0  0  0
    5.2070  -21.8480   -2.6400 C   0  0  0  0  0  0  0  0  0  0  0  0
    5.7840  -23.0160   -2.1590 C   0  0  0  0  0  0  0  0  0  0  0  0
    6.8910  -24.7070    0.7440 C   0  0  0  0  0  0  0  0  0  0  0  0
    5.8780  -24.0270    1.6560 C   0  0  0  0  0  0  0  0  0  0  0  0
    4.6740  -24.8470    1.5270 N   0  3  0  0  0  0  0  0  0  0  0  0
    3.9060  -24.3540    0.3260 C   0  0  0  0  0  0  0  0  0  0  0  0
    2.6090  -25.1880    0.1670 C   0  0  0  0  0  0  0  0  0  0  0  0
    1.8380  -25.0210    1.4250 N   0  0  0  0  0  0  0  0  0  0  0  0
    0.4520  -25.2050    1.3340 C   0  0  0  0  0  0  0  0  0  0  0  0
   -0.2830  -24.3510    0.5050 C   0  0  0  0  0  0  0  0  0  0  0  0
   -1.6610  -24.4870    0.4150 C   0  0  0  0  0  0  0  0  0  0  0  0
   -2.3390  -25.4730    1.1570 C   0  0  0  0  0  0  0  0  0  0  0  0
   -3.7940  -25.6210    1.1050 C   0  0  0  0  0  0  0  0  0  0  0  0
   -4.3730  -26.6670    1.3530 O   0  0  0  0  0  0  0  0  0  0  0  0
   -4.5520  -24.5600    0.7460 N   0  0  0  0  0  0  0  0  0  0  0  0
   -6.0490  -24.3840    1.4020 S   0  0  0  0  0  0  0  0  0  0  0  0
   -5.9620  -24.6080    2.7970 O   0  0  0  0  0  0  0  0  0  0  0  0
   -6.5400  -23.1250    0.9810 O   0  0  0  0  0  0  0  0  0  0  0  0
   -7.0770  -25.6810    0.6590 C   0  0  0  0  0  0  0  0  0  0  0  0
   -7.6410  -25.5030   -0.6060 C   0  0  0  0  0  0  0  0  0  0  0  0
   -8.4330  -26.4900   -1.1730 C   0  0  0  0  0  0  0  0  0  0  0  0
   -8.6940  -27.6700   -0.4710 C   0  0  0  0  0  0  0  0  0  0  0  0
   -9.5480  -28.5980   -1.0800 N   0  0  0  0  0  0  0  0  0  0  0  0
  -10.9770  -28.5060   -0.6740 C   0  0  2  0  0  0  0  0  0  0  0  0
  -11.6750  -29.7430   -1.2760 C   0  0  0  0  0  0  0  0  0  0  0  0
  -11.1780  -30.9450   -0.4680 C   0  0  0  0  0  0  0  0  0  0  0  0
  -11.8550  -32.1290   -1.0220 N   0  3  0  0  0  0  0  0  0  0  0  0
  -11.0050  -33.3140   -0.6850 C   0  0  0  0  0  0  0  0  0  0  0  0
  -11.7050  -34.5720   -1.2510 C   0  0  0  0  0  0  0  0  0  0  0  0
  -12.9840  -34.6580   -0.6250 O   0  0  0  0  0  0  0  0  0  0  0  0
  -13.8530  -33.5600   -0.8960 C   0  0  0  0  0  0  0  0  0  0  0  0
  -13.1740  -32.2920   -0.3260 C   0  0  0  0  0  0  0  0  0  0  0  0
  -11.5800  -27.1950   -1.2230 C   0  0  0  0  0  0  0  0  0  0  0  0
  -13.2910  -27.0990   -0.5810 S   0  0  0  0  0  0  0  0  0  0  0  0
  -14.0030  -25.6400   -1.2420 C   0  0  0  0  0  0  0  0  0  0  0  0
  -13.2660  -24.7060   -1.9870 C   0  0  0  0  0  0  0  0  0  0  0  0
  -13.8880  -23.5700   -2.4930 C   0  0  0  0  0  0  0  0  0  0  0  0
  -15.2420  -23.3470   -2.2620 C   0  0  0  0  0  0  0  0  0  0  0  0
  -15.9770  -24.2670   -1.5190 C   0  0  0  0  0  0  0  0  0  0  0  0
  -15.3630  -25.4050   -1.0100 C   0  0  0  0  0  0  0  0  0  0  0  0
   -8.0970  -27.8980    0.7810 C   0  0  0  0  0  0  0  0  0  0  0  0
   -8.2000  -29.4850    1.6360 S   0  0  0  0  0  0  0  0  0  0  0  0
   -7.5930  -29.3470    2.9160 O   0  0  0  0  0  0  0  0  0  0  0  0
   -9.5580  -29.9340    1.6610 O   0  0  0  0  0  0  0  0  0  0  0  0
   -7.1560  -30.6290    0.5380 C   0  0  0  0  0  0  0  0  0  0  0  0
   -7.8490  -31.1800   -0.5050 F   0  0  0  0  0  0  0  0  0  0  0  0
   -6.0930  -30.0300   -0.0430 F   0  0  0  0  0  0  0  0  0  0  0  0
   -6.6400  -31.7020    1.1820 F   0  0  0  0  0  0  0  0  0  0  0  0
   -7.3250  -26.8760    1.3400 C   0  0  0  0  0  0  0  0  0  0  0  0
   -1.5820  -26.3340    1.9700 C   0  0  0  0  0  0  0  0  0  0  0  0
   -0.2040  -26.2050    2.0640 C   0  0  0  0  0  0  0  0  0  0  0  0
    2.5430  -25.4750    2.6450 C   0  0  0  0  0  0  0  0  0  0  0  0
    3.8280  -24.6150    2.7480 C   0  0  0  0  0  0  0  0  0  0  0  0
    7.5160  -25.9820    1.3100 C   0  0  0  0  0  0  0  0  0  0  0  0
   11.6110  -25.8130   -0.6790 C   0  0  0  0  0  0  0  0  0  0  0  0
   13.1250  -25.6540   -0.9480 C   0  0  0  0  0  0  0  0  0  0  0  0
   23.7890  -29.4580   -1.2730 C   0  0  0  0  0  0  0  0  0  0  0  0
   25.1910  -29.7900   -1.8200 C   0  0  0  0  0  0  0  0  0  0  0  0
   23.3830  -28.0700   -1.8110 C   0  0  0  0  0  0  0  0  0  0  0  0
   22.8080  -30.4700   -1.9020 C   0  0  0  0  0  0  0  0  0  0  0  0
   24.7470  -33.5590    0.2770 C   0  0  0  0  0  0  0  0  0  0  0  0
   24.6560  -33.6550   -1.1060 C   0  0  0  0  0  0  0  0  0  0  0  0
   24.6550  -32.7370   -4.2300 S   0  0  0  0  0  0  0  0  0  0  0  0
   25.1850  -33.4800   -5.6860 C   0  0  0  0  0  0  0  0  0  0  0  0
   26.0640  -34.4270   -5.5370 N   0  0  0  0  0  0  0  0  0  0  0  0
   27.4610  -35.6830   -2.7430 H   0  0  0  0  0  0  0  0  0  0  0  0
   28.3110  -35.4730   -4.2930 H   0  0  0  0  0  0  0  0  0  0  0  0
   26.9830  -36.6500   -4.1580 H   0  0  0  0  0  0  0  0  0  0  0  0
   27.9530  -33.6200   -1.8640 H   0  0  0  0  0  0  0  0  0  0  0  0
   28.1170  -33.4870    0.5840 H   0  0  0  0  0  0  0  0  0  0  0  0
   27.1540  -33.1630    2.6740 H   0  0  0  0  0  0  0  0  0  0  0  0
   24.6890  -35.0120    2.7080 H   0  0  0  0  0  0  0  0  0  0  0  0
   25.7950  -34.7660    4.0810 H   0  0  0  0  0  0  0  0  0  0  0  0
   26.3760  -35.5680    2.6020 H   0  0  0  0  0  0  0  0  0  0  0  0
   24.4310  -32.8470    3.5040 H   0  0  0  0  0  0  0  0  0  0  0  0
   26.2510  -31.0290    0.9950 H   0  0  0  0  0  0  0  0  0  0  0  0
   28.2610  -31.1570    2.2660 H   0  0  0  0  0  0  0  0  0  0  0  0
   27.4980  -30.3900    3.6800 H   0  0  0  0  0  0  0  0  0  0  0  0
   28.9300  -28.5800    2.8730 H   0  0  0  0  0  0  0  0  0  0  0  0
   28.2150  -29.5130    0.3170 H   0  0  0  0  0  0  0  0  0  0  0  0
   27.1190  -27.3210    1.3320 H   0  0  0  0  0  0  0  0  0  0  0  0
   26.6670  -27.7070    3.0100 H   0  0  0  0  0  0  0  0  0  0  0  0
   24.1290  -30.5770    0.5200 H   0  0  0  0  0  0  0  0  0  0  0  0
   22.0790  -28.4390    0.8960 H   0  0  0  0  0  0  0  0  0  0  0  0
   19.8580  -30.8480    2.3040 H   0  0  0  0  0  0  0  0  0  0  0  0
   20.4460  -29.1860    2.5420 H   0  0  0  0  0  0  0  0  0  0  0  0
   19.8100  -28.6740    0.1700 H   0  0  0  0  0  0  0  0  0  0  0  0
   19.1100  -30.3060    0.0430 H   0  0  0  0  0  0  0  0  0  0  0  0
   18.2390  -28.1610    2.0300 H   0  0  0  0  0  0  0  0  0  0  0  0
   17.5230  -29.7810    1.8570 H   0  0  0  0  0  0  0  0  0  0  0  0
   16.8230  -29.2740   -0.4320 H   0  0  0  0  0  0  0  0  0  0  0  0
   17.6440  -27.6960   -0.3650 H   0  0  0  0  0  0  0  0  0  0  0  0
   16.1250  -27.0130    1.4830 H   0  0  0  0  0  0  0  0  0  0  0  0
   15.2780  -28.5720    1.3390 H   0  0  0  0  0  0  0  0  0  0  0  0
   14.0260  -26.8090    2.1880 H   0  0  0  0  0  0  0  0  0  0  0  0
   13.8400  -25.0910    1.7620 H   0  0  0  0  0  0  0  0  0  0  0  0
   11.6940  -25.9650    2.6920 H   0  0  0  0  0  0  0  0  0  0  0  0
   11.6780  -27.2580    1.4690 H   0  0  0  0  0  0  0  0  0  0  0  0
   11.7400  -24.3750    0.7730 H   0  0  0  0  0  0  0  0  0  0  0  0
    9.7840  -25.0120    2.0830 H   0  0  0  0  0  0  0  0  0  0  0  0
    9.5490  -24.2170    0.5070 H   0  0  0  0  0  0  0  0  0  0  0  0
    8.5620  -28.4130    0.6960 H   0  0  0  0  0  0  0  0  0  0  0  0
    9.3970  -27.7130    2.1040 H   0  0  0  0  0  0  0  0  0  0  0  0
   10.2660  -27.9160    0.5630 H   0  0  0  0  0  0  0  0  0  0  0  0
    9.3910  -26.6900   -1.4800 H   0  0  0  0  0  0  0  0  0  0  0  0
    7.6810  -26.9950   -1.0920 H   0  0  0  0  0  0  0  0  0  0  0  0
    7.6940  -25.0020   -2.4330 H   0  0  0  0  0  0  0  0  0  0  0  0
    9.0610  -24.3120   -1.5250 H   0  0  0  0  0  0  0  0  0  0  0  0
    7.4910  -21.7310    0.4760 H   0  0  0  0  0  0  0  0  0  0  0  0
    6.4610  -19.6580   -0.3680 H   0  0  0  0  0  0  0  0  0  0  0  0
    4.5770  -21.8770   -3.5170 H   0  0  0  0  0  0  0  0  0  0  0  0
    5.6040  -23.9500   -2.6710 H   0  0  0  0  0  0  0  0  0  0  0  0
    5.6870  -23.0050    1.3280 H   0  0  0  0  0  0  0  0  0  0  0  0
    6.2310  -24.0180    2.6870 H   0  0  0  0  0  0  0  0  0  0  0  0
    4.9070  -25.8250    1.4290 H   0  0  0  0  0  0  0  0  0  0  0  0
    3.6490  -23.3040    0.4650 H   0  0  0  0  0  0  0  0  0  0  0  0
    4.5200  -24.4620   -0.5680 H   0  0  0  0  0  0  0  0  0  0  0  0
    2.8540  -26.2390    0.0130 H   0  0  0  0  0  0  0  0  0  0  0  0
    2.0290  -24.8230   -0.6800 H   0  0  0  0  0  0  0  0  0  0  0  0
    0.2220  -23.5860   -0.0650 H   0  0  0  0  0  0  0  0  0  0  0  0
   -2.2210  -23.8280   -0.2320 H   0  0  0  0  0  0  0  0  0  0  0  0
   -4.2020  -23.8840    0.0820 H   0  0  0  0  0  0  0  0  0  0  0  0
   -7.4580  -24.5870   -1.1480 H   0  0  0  0  0  0  0  0  0  0  0  0
   -8.8490  -26.3470   -2.1590 H   0  0  0  0  0  0  0  0  0  0  0  0
   -9.2180  -29.2810   -1.7470 H   0  0  0  0  0  0  0  0  0  0  0  0
  -11.1010  -28.4910    0.4090 H   0  0  0  0  0  0  0  0  0  0  0  0
  -12.7570  -29.6480   -1.1860 H   0  0  0  0  0  0  0  0  0  0  0  0
  -11.4060  -29.8560   -2.3260 H   0  0  0  0  0  0  0  0  0  0  0  0
  -11.4340  -30.8230    0.5850 H   0  0  0  0  0  0  0  0  0  0  0  0
  -10.0980  -31.0470   -0.5700 H   0  0  0  0  0  0  0  0  0  0  0  0
  -11.9940  -32.0390   -2.0180 H   0  0  0  0  0  0  0  0  0  0  0  0
  -10.0190  -33.2040   -1.1360 H   0  0  0  0  0  0  0  0  0  0  0  0
  -10.9020  -33.4010    0.3970 H   0  0  0  0  0  0  0  0  0  0  0  0
  -11.1170  -35.4610   -1.0240 H   0  0  0  0  0  0  0  0  0  0  0  0
  -11.8230  -34.4800   -2.3310 H   0  0  0  0  0  0  0  0  0  0  0  0
  -13.9990  -33.4550   -1.9710 H   0  0  0  0  0  0  0  0  0  0  0  0
  -14.8170  -33.7180   -0.4120 H   0  0  0  0  0  0  0  0  0  0  0  0
  -13.0160  -32.4060    0.7470 H   0  0  0  0  0  0  0  0  0  0  0  0
  -13.8010  -31.4200   -0.5110 H   0  0  0  0  0  0  0  0  0  0  0  0
  -11.5870  -27.2120   -2.3130 H   0  0  0  0  0  0  0  0  0  0  0  0
  -11.0000  -26.3400   -0.8770 H   0  0  0  0  0  0  0  0  0  0  0  0
  -12.2140  -24.8700   -2.1670 H   0  0  0  0  0  0  0  0  0  0  0  0
  -13.3170  -22.8570   -3.0690 H   0  0  0  0  0  0  0  0  0  0  0  0
  -15.7210  -22.4640   -2.6580 H   0  0  0  0  0  0  0  0  0  0  0  0
  -17.0280  -24.0960   -1.3380 H   0  0  0  0  0  0  0  0  0  0  0  0
  -15.9390  -26.1120   -0.4320 H   0  0  0  0  0  0  0  0  0  0  0  0
   -6.9080  -27.0140    2.3270 H   0  0  0  0  0  0  0  0  0  0  0  0
   -2.0820  -27.1100    2.5310 H   0  0  0  0  0  0  0  0  0  0  0  0
    0.3610  -26.8730    2.6970 H   0  0  0  0  0  0  0  0  0  0  0  0
    1.9150  -25.3230    3.5230 H   0  0  0  0  0  0  0  0  0  0  0  0
    2.8010  -26.5310    2.5620 H   0  0  0  0  0  0  0  0  0  0  0  0
    4.3870  -24.9000    3.6390 H   0  0  0  0  0  0  0  0  0  0  0  0
    3.5580  -23.5610    2.8100 H   0  0  0  0  0  0  0  0  0  0  0  0
    7.7030  -25.8530    2.3760 H   0  0  0  0  0  0  0  0  0  0  0  0
    6.8340  -26.8190    1.1600 H   0  0  0  0  0  0  0  0  0  0  0  0
   11.3290  -26.8640   -0.7470 H   0  0  0  0  0  0  0  0  0  0  0  0
   11.0410  -25.2360   -1.4070 H   0  0  0  0  0  0  0  0  0  0  0  0
   13.4020  -24.6010   -0.9000 H   0  0  0  0  0  0  0  0  0  0  0  0
   13.3700  -26.0500   -1.9340 H   0  0  0  0  0  0  0  0  0  0  0  0
   25.1850  -29.7110   -2.9070 H   0  0  0  0  0  0  0  0  0  0  0  0
   25.4630  -30.8050   -1.5310 H   0  0  0  0  0  0  0  0  0  0  0  0
   25.9170  -29.0880   -1.4090 H   0  0  0  0  0  0  0  0  0  0  0  0
   23.4110  -28.0800   -2.9010 H   0  0  0  0  0  0  0  0  0  0  0  0
   24.0770  -27.3180   -1.4370 H   0  0  0  0  0  0  0  0  0  0  0  0
   22.3740  -27.8310   -1.4760 H   0  0  0  0  0  0  0  0  0  0  0  0
   22.8310  -30.3710   -2.9870 H   0  0  0  0  0  0  0  0  0  0  0  0
   21.7990  -30.2710   -1.5400 H   0  0  0  0  0  0  0  0  0  0  0  0
   23.1010  -31.4820   -1.6230 H   0  0  0  0  0  0  0  0  0  0  0  0
   23.8460  -33.5250    0.8720 H   0  0  0  0  0  0  0  0  0  0  0  0
   23.6840  -33.7090   -1.5730 H   0  0  0  0  0  0  0  0  0  0  0  0
   24.8150  -33.1820   -6.6560 H   0  0  0  0  0  0  0  0  0  0  0  0
  1  2  1  0  0  0  0
  1112  1  0  0  0  0
  1113  1  0  0  0  0
  1114  1  0  0  0  0
  2  3  2  0  0  0  0
  2111  1  0  0  0  0
  3  4  1  0  0  0  0
  3109  1  0  0  0  0
  4  5  1  0  0  0  0
  4108  2  0  0  0  0
  5  6  2  0  0  0  0
  5115  1  0  0  0  0
  6  7  1  0  0  0  0
  6116  1  0  0  0  0
  7  8  1  0  0  0  0
  7107  2  0  0  0  0
  8  9  1  0  0  0  0
  8 10  1  0  0  0  0
  8117  1  0  0  0  0
  9118  1  0  0  0  0
  9119  1  0  0  0  0
  9120  1  0  0  0  0
 10 11  1  0  0  0  0
 10121  1  0  0  0  0
 11 12  2  0  0  0  0
 11 13  1  0  0  0  0
 13 14  1  0  0  0  0
 13 18  1  0  0  0  0
 13122  1  0  0  0  0
 14 15  1  0  0  0  0
 14123  1  0  0  0  0
 14124  1  0  0  0  0
 15 16  1  0  0  0  0
 15 17  1  0  0  0  0
 15125  1  0  0  0  0
 16126  1  0  0  0  0
 17 18  1  0  0  0  0
 17127  1  0  0  0  0
 17128  1  0  0  0  0
 18 19  1  0  0  0  0
 19 20  2  0  0  0  0
 19 21  1  0  0  0  0
 21 22  1  0  0  0  0
 21103  1  0  0  0  0
 21129  1  0  0  0  0
 22 23  1  0  0  0  0
 22130  1  0  0  0  0
 23 24  2  0  0  0  0
 23 25  1  0  0  0  0
 25 26  1  0  0  0  0
 25131  1  0  0  0  0
 25132  1  0  0  0  0
 26 27  1  0  0  0  0
 26133  1  0  0  0  0
 26134  1  0  0  0  0
 27 28  1  0  0  0  0
 27135  1  0  0  0  0
 27136  1  0  0  0  0
 28 29  1  0  0  0  0
 28137  1  0  0  0  0
 28138  1  0  0  0  0
 29 30  1  0  0  0  0
 29139  1  0  0  0  0
 29140  1  0  0  0  0
 30 31  2  0  0  0  0
 30 32  1  0  0  0  0
 32 33  1  0  0  0  0
 32102  1  0  0  0  0
 33 34  1  0  0  0  0
 33141  1  0  0  0  0
 33142  1  0  0  0  0
 34 35  1  0  0  0  0
 34143  1  0  0  0  0
 34144  1  0  0  0  0
 35 36  1  0  0  0  0
 35101  1  0  0  0  0
 35145  1  0  0  0  0
 36 37  1  0  0  0  0
 36146  1  0  0  0  0
 36147  1  0  0  0  0
 37 38  1  0  0  0  0
 37 39  1  0  0  0  0
 37100  1  0  0  0  0
 38148  1  0  0  0  0
 38149  1  0  0  0  0
 38150  1  0  0  0  0
 39 40  1  0  0  0  0
 39151  1  0  0  0  0
 39152  1  0  0  0  0
 40 41  1  0  0  0  0
 40153  1  0  0  0  0
 40154  1  0  0  0  0
 41 42  1  0  0  0  0
 41 49  2  0  0  0  0
 42 43  1  0  0  0  0
 42 48  2  0  0  0  0
 43 44  2  0  0  0  0
 43155  1  0  0  0  0
 44 45  1  0  0  0  0
 44156  1  0  0  0  0
 45 46  1  0  0  0  0
 45 47  2  0  0  0  0
 47 48  1  0  0  0  0
 47157  1  0  0  0  0
 48158  1  0  0  0  0
 49 50  1  0  0  0  0
 49100  1  0  0  0  0
 50 51  1  0  0  0  0
 50159  1  0  0  0  0
 50160  1  0  0  0  0
 51 52  1  0  0  0  0
 51 99  1  0  0  0  0
 51161  1  0  0  0  0
 52 53  1  0  0  0  0
 52162  1  0  0  0  0
 52163  1  0  0  0  0
 53 54  1  0  0  0  0
 53164  1  0  0  0  0
 53165  1  0  0  0  0
 54 55  1  0  0  0  0
 54 98  1  0  0  0  0
 55 56  1  0  0  0  0
 55 97  2  0  0  0  0
 56 57  2  0  0  0  0
 56166  1  0  0  0  0
 57 58  1  0  0  0  0
 57167  1  0  0  0  0
 58 59  1  0  0  0  0
 58 96  2  0  0  0  0
 59 60  2  0  0  0  0
 59 61  1  0  0  0  0
 61 62  1  0  0  0  0
 61168  1  0  0  0  0
 62 63  2  0  0  0  0
 62 64  2  0  0  0  0
 62 65  1  0  0  0  0
 65 66  1  0  0  0  0
 65 95  2  0  0  0  0
 66 67  2  0  0  0  0
 66169  1  0  0  0  0
 67 68  1  0  0  0  0
 67170  1  0  0  0  0
 68 69  1  0  0  0  0
 68 87  2  0  0  0  0
 69 70  1  0  0  0  0
 69171  1  0  0  0  0
 70 71  1  0  0  0  0
 70 79  1  0  0  0  0
 70172  1  0  0  0  0
 71 72  1  0  0  0  0
 71173  1  0  0  0  0
 71174  1  0  0  0  0
 72 73  1  0  0  0  0
 72175  1  0  0  0  0
 72176  1  0  0  0  0
 73 74  1  0  0  0  0
 73 78  1  0  0  0  0
 73177  1  0  0  0  0
 74 75  1  0  0  0  0
 74178  1  0  0  0  0
 74179  1  0  0  0  0
 75 76  1  0  0  0  0
 75180  1  0  0  0  0
 75181  1  0  0  0  0
 76 77  1  0  0  0  0
 77 78  1  0  0  0  0
 77182  1  0  0  0  0
 77183  1  0  0  0  0
 78184  1  0  0  0  0
 78185  1  0  0  0  0
 79 80  1  0  0  0  0
 79186  1  0  0  0  0
 79187  1  0  0  0  0
 80 81  1  0  0  0  0
 81 82  1  0  0  0  0
 81 86  2  0  0  0  0
 82 83  2  0  0  0  0
 82188  1  0  0  0  0
 83 84  1  0  0  0  0
 83189  1  0  0  0  0
 84 85  2  0  0  0  0
 84190  1  0  0  0  0
 85 86  1  0  0  0  0
 85191  1  0  0  0  0
 86192  1  0  0  0  0
 87 88  1  0  0  0  0
 87 95  1  0  0  0  0
 88 89  2  0  0  0  0
 88 90  2  0  0  0  0
 88 91  1  0  0  0  0
 91 92  1  0  0  0  0
 91 93  1  0  0  0  0
 91 94  1  0  0  0  0
 95193  1  0  0  0  0
 96 97  1  0  0  0  0
 96194  1  0  0  0  0
 97195  1  0  0  0  0
 98 99  1  0  0  0  0
 98196  1  0  0  0  0
 98197  1  0  0  0  0
 99198  1  0  0  0  0
 99199  1  0  0  0  0
100200  1  0  0  0  0
100201  1  0  0  0  0
101102  1  0  0  0  0
101202  1  0  0  0  0
101203  1  0  0  0  0
102204  1  0  0  0  0
102205  1  0  0  0  0
103104  1  0  0  0  0
103105  1  0  0  0  0
103106  1  0  0  0  0
104206  1  0  0  0  0
104207  1  0  0  0  0
104208  1  0  0  0  0
105209  1  0  0  0  0
105210  1  0  0  0  0
105211  1  0  0  0  0
106212  1  0  0  0  0
106213  1  0  0  0  0
106214  1  0  0  0  0
107108  1  0  0  0  0
107215  1  0  0  0  0
108216  1  0  0  0  0
109110  1  0  0  0  0
110111  2  0  0  0  0
110217  1  0  0  0  0
M  CHG  1  35   1
M  CHG  1  51   1
M  CHG  1  73   1
M  END
>  <Compound ID>
3215

>  <Uniprot>
P10415

>  <Target>
BCL2

>  <E3 ligase>
VHL

>  <Name>
PPC7

>  <Dmax (%)>
79

>  <Assay (DC50/Dmax)>
Degradation of BCL2 in 293T cells after 16 h treatment

>  <Article DOI>
10.1038/s41467-021-27210-x

>  <Molecular Weight>
1627.496

>  <Exact Mass>
1625.6362

>  <XLogP3>
11.77

>  <Heavy Atom Count>
111

>  <Ring Count>
11

>  <Hydrogen Bond Acceptor Count>
19

>  <Hydrogen Bond Donor Count>
5

>  <Rotatable Bond Count>
30

>  <Topological Polar Surface Area>
263.54001

>  <Molecular Formula>
C81H103ClF3N11O11S4

>  <InChI>
InChI=1S/C81H103ClF3N11O11S4/c1-55(57-17-19-59(20-18-57)74-56(2)86-54-109-74)87-77(101)70-47-65(97)51-96(70)78(102)75(79(3,4)5)89-72(98)15-11-8-12-16-73(99)95-41-37-93(38-42-95)53-80(6)33-31-68(58-21-25-62(82)26-22-58)61(49-80)50-92-35-39-94(40-36-92)64-27-23-60(24-28-64)76(100)90-111(105,106)67-29-30-69(71(48-67)110(103,104)81(83,84)85)88-63(32-34-91-43-45-107-46-44-91)52-108-66-13-9-7-10-14-66/h7,9-10,13-14,17-30,48,54-55,63,65,70,75,88,97H,8,11-12,15-16,31-47,49-53H2,1-6H3,(H,87,101)(H,89,98)(H,90,100)/t55-,63+,65+,70-,75+,80?/m0/s1

>  <InChI Key>
XXWWYTHQXVIKLW-WGWDJEQESA-N

>  <DC50 (nM)>
179.89999

$$$$
3216
  MOE2018           3D

220230  0  0  1  0  0  0  0  0999 V2000
   19.5320  -34.0460   -3.9540 C   0  0  0  0  0  0  0  0  0  0  0  0
   18.2820  -33.2720   -4.2990 C   0  0  0  0  0  0  0  0  0  0  0  0
   17.3160  -32.8910   -3.4020 C   0  0  0  0  0  0  0  0  0  0  0  0
   17.2600  -33.1010   -1.9600 C   0  0  0  0  0  0  0  0  0  0  0  0
   18.3470  -32.7760   -1.1410 C   0  0  0  0  0  0  0  0  0  0  0  0
   18.2910  -32.9840    0.2330 C   0  0  0  0  0  0  0  0  0  0  0  0
   17.1410  -33.5100    0.8240 C   0  0  0  0  0  0  0  0  0  0  0  0
   17.1090  -33.7300    2.3310 C   0  0  2  0  0  0  0  0  0  0  0  0
   17.1330  -35.2390    2.5900 C   0  0  0  0  0  0  0  0  0  0  0  0
   15.8510  -33.2480    2.8690 N   0  0  0  0  0  0  0  0  0  0  0  0
   15.4080  -31.9940    2.9290 C   0  0  0  0  0  0  0  0  0  0  0  0
   14.3650  -31.8090    3.5430 O   0  0  0  0  0  0  0  0  0  0  0  0
   16.2090  -30.8020    2.3120 C   0  0  2  0  0  0  0  0  0  0  0  0
   17.4070  -30.4290    3.2010 C   0  0  0  0  0  0  0  0  0  0  0  0
   17.5240  -28.9120    3.1000 C   0  0  1  0  0  0  0  0  0  0  0  0
   18.2890  -28.5870    1.9570 O   0  0  0  0  0  0  0  0  0  0  0  0
   16.0680  -28.4820    2.9300 C   0  0  0  0  0  0  0  0  0  0  0  0
   15.4490  -29.5520    2.1600 N   0  0  0  0  0  0  0  0  0  0  0  0
   14.2800  -29.3850    1.5100 C   0  0  0  0  0  0  0  0  0  0  0  0
   13.6450  -28.3430    1.6790 O   0  0  0  0  0  0  0  0  0  0  0  0
   13.7360  -30.4750    0.5330 C   0  0  1  0  0  0  0  0  0  0  0  0
   12.4160  -30.9380    0.9770 N   0  0  0  0  0  0  0  0  0  0  0  0
   12.0800  -32.2200    1.0760 C   0  0  0  0  0  0  0  0  0  0  0  0
   12.7940  -33.1230    0.6540 O   0  0  0  0  0  0  0  0  0  0  0  0
   10.7490  -32.5450    1.7400 C   0  0  0  0  0  0  0  0  0  0  0  0
    9.5360  -31.9980    0.9670 C   0  0  0  0  0  0  0  0  0  0  0  0
    8.2350  -32.5540    1.5600 C   0  0  0  0  0  0  0  0  0  0  0  0
    7.0000  -31.9240    0.9020 C   0  0  0  0  0  0  0  0  0  0  0  0
    5.7350  -32.6340    1.4040 C   0  0  0  0  0  0  0  0  0  0  0  0
    4.4460  -31.9530    0.9090 C   0  0  0  0  0  0  0  0  0  0  0  0
    3.1660  -32.6880    1.3360 C   0  0  0  0  0  0  0  0  0  0  0  0
    3.2420  -33.8360    1.7540 O   0  0  0  0  0  0  0  0  0  0  0  0
    1.9590  -32.0920    1.2140 N   0  0  0  0  0  0  0  0  0  0  0  0
    1.6940  -30.8280    0.4950 C   0  0  0  0  0  0  0  0  0  0  0  0
    0.8150  -31.1960   -0.7370 C   0  0  0  0  0  0  0  0  0  0  0  0
   -0.4520  -31.9280   -0.3380 N   0  3  0  0  0  0  0  0  0  0  0  0
   -1.3700  -31.0300    0.4260 C   0  0  0  0  0  0  0  0  0  0  0  0
   -2.8350  -31.2400   -0.0900 C   0  0  2  0  0  0  0  0  0  0  0  0
   -3.2680  -32.7190    0.0460 C   0  0  0  0  0  0  0  0  0  0  0  0
   -3.0190  -30.8420   -1.5740 C   0  0  0  0  0  0  0  0  0  0  0  0
   -2.5560  -29.3870   -1.7960 C   0  0  0  0  0  0  0  0  0  0  0  0
   -3.1880  -28.4680   -0.7560 C   0  0  0  0  0  0  0  0  0  0  0  0
   -3.1290  -27.0490   -1.0920 C   0  0  0  0  0  0  0  0  0  0  0  0
   -2.3760  -26.1610   -0.3110 C   0  0  0  0  0  0  0  0  0  0  0  0
   -2.3410  -24.8050   -0.6130 C   0  0  0  0  0  0  0  0  0  0  0  0
   -3.0530  -24.3170   -1.7090 C   0  0  0  0  0  0  0  0  0  0  0  0
   -3.0210  -22.6250   -2.0800 Cl  0  0  0  0  0  0  0  0  0  0  0  0
   -3.7900  -25.1930   -2.5070 C   0  0  0  0  0  0  0  0  0  0  0  0
   -3.8240  -26.5480   -2.2010 C   0  0  0  0  0  0  0  0  0  0  0  0
   -3.7430  -28.9180    0.3970 C   0  0  0  0  0  0  0  0  0  0  0  0
   -4.4150  -27.9670    1.3820 C   0  0  0  0  0  0  0  0  0  0  0  0
   -5.8370  -28.2440    1.1880 N   0  3  0  0  0  0  0  0  0  0  0  0
   -6.3620  -27.3590    0.0990 C   0  0  0  0  0  0  0  0  0  0  0  0
   -7.8170  -27.8000   -0.2020 C   0  0  0  0  0  0  0  0  0  0  0  0
   -8.6070  -27.6800    1.0570 N   0  0  0  0  0  0  0  0  0  0  0  0
  -10.0060  -27.7730    0.9600 C   0  0  0  0  0  0  0  0  0  0  0  0
  -10.6290  -28.4050   -0.1260 C   0  0  0  0  0  0  0  0  0  0  0  0
  -12.0100  -28.5360   -0.1490 C   0  0  0  0  0  0  0  0  0  0  0  0
  -12.8030  -28.0390    0.9010 C   0  0  0  0  0  0  0  0  0  0  0  0
  -14.2560  -28.2160    0.9150 C   0  0  0  0  0  0  0  0  0  0  0  0
  -15.0040  -27.8710    1.8150 O   0  0  0  0  0  0  0  0  0  0  0  0
  -14.9020  -28.7970   -0.1030 N   0  0  0  0  0  0  0  0  0  0  0  0
  -15.4220  -27.6860   -1.2000 S   0  0  0  0  0  0  0  0  0  0  0  0
  -15.4710  -28.3220   -2.4610 O   0  0  0  0  0  0  0  0  0  0  0  0
  -14.6020  -26.5350   -1.1180 O   0  0  0  0  0  0  0  0  0  0  0  0
  -17.0970  -27.2600   -0.6740 C   0  0  0  0  0  0  0  0  0  0  0  0
  -17.3030  -26.3160    0.3310 C   0  0  0  0  0  0  0  0  0  0  0  0
  -18.5860  -25.9910    0.7410 C   0  0  0  0  0  0  0  0  0  0  0  0
  -19.6940  -26.5870    0.1370 C   0  0  0  0  0  0  0  0  0  0  0  0
  -20.9390  -26.1880    0.6450 N   0  0  0  0  0  0  0  0  0  0  0  0
  -21.6890  -25.0960    0.0020 C   0  0  2  0  0  0  0  0  0  0  0  0
  -20.8860  -23.7930    0.1670 C   0  0  0  0  0  0  0  0  0  0  0  0
  -21.5930  -22.7100   -0.6610 C   0  0  0  0  0  0  0  0  0  0  0  0
  -20.7870  -21.4860   -0.4870 N   0  3  0  0  0  0  0  0  0  0  0  0
  -21.6650  -20.3130   -0.8040 C   0  0  0  0  0  0  0  0  0  0  0  0
  -20.8260  -19.0280   -0.6050 C   0  0  0  0  0  0  0  0  0  0  0  0
  -19.7280  -19.1050   -1.5120 O   0  0  0  0  0  0  0  0  0  0  0  0
  -18.8400  -20.1970   -1.2790 C   0  0  0  0  0  0  0  0  0  0  0  0
  -19.6570  -21.4950   -1.4820 C   0  0  0  0  0  0  0  0  0  0  0  0
  -23.0440  -25.0330    0.7380 C   0  0  0  0  0  0  0  0  0  0  0  0
  -23.9190  -26.5750    0.2980 S   0  0  0  0  0  0  0  0  0  0  0  0
  -25.3590  -26.6690    1.2880 C   0  0  0  0  0  0  0  0  0  0  0  0
  -26.1890  -27.7850    1.1390 C   0  0  0  0  0  0  0  0  0  0  0  0
  -27.3430  -27.9100    1.9020 C   0  0  0  0  0  0  0  0  0  0  0  0
  -27.6850  -26.9230    2.8220 C   0  0  0  0  0  0  0  0  0  0  0  0
  -26.8660  -25.8080    2.9760 C   0  0  0  0  0  0  0  0  0  0  0  0
  -25.7090  -25.6760    2.2160 C   0  0  0  0  0  0  0  0  0  0  0  0
  -19.5190  -27.5520   -0.8770 C   0  0  0  0  0  0  0  0  0  0  0  0
  -20.8910  -28.3880   -1.7130 S   0  0  0  0  0  0  0  0  0  0  0  0
  -21.8650  -27.4130   -2.0740 O   0  0  0  0  0  0  0  0  0  0  0  0
  -20.3520  -29.1310   -2.8030 O   0  0  0  0  0  0  0  0  0  0  0  0
  -21.5600  -29.5760   -0.3920 C   0  0  0  0  0  0  0  0  0  0  0  0
  -21.8860  -28.9780    0.7770 F   0  0  0  0  0  0  0  0  0  0  0  0
  -22.6740  -30.2570   -0.7530 F   0  0  0  0  0  0  0  0  0  0  0  0
  -20.6730  -30.5360   -0.0300 F   0  0  0  0  0  0  0  0  0  0  0  0
  -18.2110  -27.8600   -1.2700 C   0  0  0  0  0  0  0  0  0  0  0  0
  -12.1650  -27.3730    1.9610 C   0  0  0  0  0  0  0  0  0  0  0  0
  -10.7850  -27.2370    1.9900 C   0  0  0  0  0  0  0  0  0  0  0  0
   -8.0480  -28.3700    2.2520 C   0  0  0  0  0  0  0  0  0  0  0  0
   -6.5840  -27.8960    2.4340 C   0  0  0  0  0  0  0  0  0  0  0  0
   -3.8120  -30.3990    0.7750 C   0  0  0  0  0  0  0  0  0  0  0  0
   -0.0840  -33.1580    0.4820 C   0  0  0  0  0  0  0  0  0  0  0  0
    0.7500  -32.7730    1.7280 C   0  0  0  0  0  0  0  0  0  0  0  0
   13.7110  -30.0170   -0.9650 C   0  0  0  0  0  0  0  0  0  0  0  0
   15.1350  -29.6400   -1.4200 C   0  0  0  0  0  0  0  0  0  0  0  0
   12.7820  -28.8180   -1.2500 C   0  0  0  0  0  0  0  0  0  0  0  0
   13.2380  -31.1600   -1.8870 C   0  0  0  0  0  0  0  0  0  0  0  0
   16.0500  -33.8260    0.0120 C   0  0  0  0  0  0  0  0  0  0  0  0
   16.1120  -33.6280   -1.3620 C   0  0  0  0  0  0  0  0  0  0  0  0
   16.0620  -32.0610   -4.2240 S   0  0  0  0  0  0  0  0  0  0  0  0
   16.9300  -32.2650   -5.6930 C   0  0  0  0  0  0  0  0  0  0  0  0
   18.0580  -32.9060   -5.5860 N   0  0  0  0  0  0  0  0  0  0  0  0
   19.5470  -34.2530   -2.8840 H   0  0  0  0  0  0  0  0  0  0  0  0
   20.4090  -33.4580   -4.2230 H   0  0  0  0  0  0  0  0  0  0  0  0
   19.5420  -34.9860   -4.5060 H   0  0  0  0  0  0  0  0  0  0  0  0
   19.2400  -32.3580   -1.5810 H   0  0  0  0  0  0  0  0  0  0  0  0
   19.1440  -32.7370    0.8480 H   0  0  0  0  0  0  0  0  0  0  0  0
   17.9530  -33.2130    2.7880 H   0  0  0  0  0  0  0  0  0  0  0  0
   16.2700  -35.7030    2.1130 H   0  0  0  0  0  0  0  0  0  0  0  0
   17.0980  -35.4240    3.6640 H   0  0  0  0  0  0  0  0  0  0  0  0
   18.0480  -35.6640    2.1780 H   0  0  0  0  0  0  0  0  0  0  0  0
   15.2330  -33.9530    3.2460 H   0  0  0  0  0  0  0  0  0  0  0  0
   16.4920  -31.1750    1.3280 H   0  0  0  0  0  0  0  0  0  0  0  0
   18.3160  -30.9070    2.8370 H   0  0  0  0  0  0  0  0  0  0  0  0
   17.2260  -30.7300    4.2330 H   0  0  0  0  0  0  0  0  0  0  0  0
   18.0100  -28.4310    3.9490 H   0  0  0  0  0  0  0  0  0  0  0  0
   17.8720  -29.0050    1.2000 H   0  0  0  0  0  0  0  0  0  0  0  0
   16.0080  -27.5370    2.3900 H   0  0  0  0  0  0  0  0  0  0  0  0
   15.5830  -28.3780    3.9010 H   0  0  0  0  0  0  0  0  0  0  0  0
   14.4370  -31.3090    0.5680 H   0  0  0  0  0  0  0  0  0  0  0  0
   11.7240  -30.2440    1.2210 H   0  0  0  0  0  0  0  0  0  0  0  0
   10.6540  -33.6280    1.8130 H   0  0  0  0  0  0  0  0  0  0  0  0
   10.7460  -32.1120    2.7400 H   0  0  0  0  0  0  0  0  0  0  0  0
    9.5270  -30.9100    1.0350 H   0  0  0  0  0  0  0  0  0  0  0  0
    9.6110  -32.2960   -0.0790 H   0  0  0  0  0  0  0  0  0  0  0  0
    8.2080  -33.6320    1.4040 H   0  0  0  0  0  0  0  0  0  0  0  0
    8.2140  -32.3410    2.6290 H   0  0  0  0  0  0  0  0  0  0  0  0
    7.0710  -32.0300   -0.1800 H   0  0  0  0  0  0  0  0  0  0  0  0
    6.9500  -30.8660    1.1610 H   0  0  0  0  0  0  0  0  0  0  0  0
    5.7390  -32.6270    2.4940 H   0  0  0  0  0  0  0  0  0  0  0  0
    5.7460  -33.6640    1.0470 H   0  0  0  0  0  0  0  0  0  0  0  0
    4.4740  -31.9110   -0.1800 H   0  0  0  0  0  0  0  0  0  0  0  0
    4.4140  -30.9400    1.3110 H   0  0  0  0  0  0  0  0  0  0  0  0
    1.1620  -30.1310    1.1420 H   0  0  0  0  0  0  0  0  0  0  0  0
    2.6310  -30.3770    0.1680 H   0  0  0  0  0  0  0  0  0  0  0  0
    1.3940  -31.8350   -1.4040 H   0  0  0  0  0  0  0  0  0  0  0  0
    0.5410  -30.2790   -1.2590 H   0  0  0  0  0  0  0  0  0  0  0  0
   -0.9420  -32.2210   -1.1710 H   0  0  0  0  0  0  0  0  0  0  0  0
   -1.3180  -31.2720    1.4880 H   0  0  0  0  0  0  0  0  0  0  0  0
   -1.0750  -29.9920    0.2750 H   0  0  0  0  0  0  0  0  0  0  0  0
   -4.2880  -32.8340   -0.3200 H   0  0  0  0  0  0  0  0  0  0  0  0
   -3.2220  -33.0160    1.0940 H   0  0  0  0  0  0  0  0  0  0  0  0
   -2.5990  -33.3490   -0.5400 H   0  0  0  0  0  0  0  0  0  0  0  0
   -2.4270  -31.5080   -2.2020 H   0  0  0  0  0  0  0  0  0  0  0  0
   -4.0720  -30.9300   -1.8430 H   0  0  0  0  0  0  0  0  0  0  0  0
   -2.8550  -29.0620   -2.7930 H   0  0  0  0  0  0  0  0  0  0  0  0
   -1.4710  -29.3370   -1.7080 H   0  0  0  0  0  0  0  0  0  0  0  0
   -1.8170  -26.5350    0.5340 H   0  0  0  0  0  0  0  0  0  0  0  0
   -1.7630  -24.1290    0.0000 H   0  0  0  0  0  0  0  0  0  0  0  0
   -4.3330  -24.8180   -3.3620 H   0  0  0  0  0  0  0  0  0  0  0  0
   -4.3920  -27.2220   -2.8250 H   0  0  0  0  0  0  0  0  0  0  0  0
   -4.1820  -26.9290    1.1450 H   0  0  0  0  0  0  0  0  0  0  0  0
   -4.1100  -28.1830    2.4060 H   0  0  0  0  0  0  0  0  0  0  0  0
   -5.9550  -29.2200    0.9570 H   0  0  0  0  0  0  0  0  0  0  0  0
   -6.3490  -26.3190    0.4260 H   0  0  0  0  0  0  0  0  0  0  0  0
   -5.7480  -27.4660   -0.7950 H   0  0  0  0  0  0  0  0  0  0  0  0
   -7.8260  -28.8340   -0.5470 H   0  0  0  0  0  0  0  0  0  0  0  0
   -8.2460  -27.1570   -0.9700 H   0  0  0  0  0  0  0  0  0  0  0  0
  -10.0350  -28.7890   -0.9420 H   0  0  0  0  0  0  0  0  0  0  0  0
  -12.4840  -29.0270   -0.9860 H   0  0  0  0  0  0  0  0  0  0  0  0
  -15.0520  -29.7920   -0.1870 H   0  0  0  0  0  0  0  0  0  0  0  0
  -16.4550  -25.8340    0.7940 H   0  0  0  0  0  0  0  0  0  0  0  0
  -18.7300  -25.2710    1.5330 H   0  0  0  0  0  0  0  0  0  0  0  0
  -21.3230  -26.6520    1.4560 H   0  0  0  0  0  0  0  0  0  0  0  0
  -21.8490  -25.2480   -1.0650 H   0  0  0  0  0  0  0  0  0  0  0  0
  -20.8600  -23.5020    1.2170 H   0  0  0  0  0  0  0  0  0  0  0  0
  -19.8680  -23.9340   -0.1960 H   0  0  0  0  0  0  0  0  0  0  0  0
  -22.6070  -22.5530   -0.2940 H   0  0  0  0  0  0  0  0  0  0  0  0
  -21.6270  -22.9970   -1.7120 H   0  0  0  0  0  0  0  0  0  0  0  0
  -20.4240  -21.4360    0.4540 H   0  0  0  0  0  0  0  0  0  0  0  0
  -22.0090  -20.3750   -1.8360 H   0  0  0  0  0  0  0  0  0  0  0  0
  -22.5250  -20.3020   -0.1350 H   0  0  0  0  0  0  0  0  0  0  0  0
  -20.4620  -18.9730    0.4210 H   0  0  0  0  0  0  0  0  0  0  0  0
  -21.4310  -18.1480   -0.8230 H   0  0  0  0  0  0  0  0  0  0  0  0
  -18.0110  -20.1620   -1.9850 H   0  0  0  0  0  0  0  0  0  0  0  0
  -18.4520  -20.1540   -0.2610 H   0  0  0  0  0  0  0  0  0  0  0  0
  -19.0210  -22.3640   -1.3130 H   0  0  0  0  0  0  0  0  0  0  0  0
  -20.0560  -21.5280   -2.4960 H   0  0  0  0  0  0  0  0  0  0  0  0
  -23.6150  -24.1650    0.4090 H   0  0  0  0  0  0  0  0  0  0  0  0
  -22.8890  -24.9780    1.8160 H   0  0  0  0  0  0  0  0  0  0  0  0
  -25.9310  -28.5540    0.4260 H   0  0  0  0  0  0  0  0  0  0  0  0
  -27.9770  -28.7760    1.7810 H   0  0  0  0  0  0  0  0  0  0  0  0
  -28.5830  -27.0220    3.4140 H   0  0  0  0  0  0  0  0  0  0  0  0
  -27.1310  -25.0420    3.6890 H   0  0  0  0  0  0  0  0  0  0  0  0
  -25.0790  -24.8080    2.3400 H   0  0  0  0  0  0  0  0  0  0  0  0
  -18.0580  -28.5830   -2.0570 H   0  0  0  0  0  0  0  0  0  0  0  0
  -12.7580  -26.9610    2.7650 H   0  0  0  0  0  0  0  0  0  0  0  0
  -10.3120  -26.7160    2.8090 H   0  0  0  0  0  0  0  0  0  0  0  0
   -8.6330  -28.1130    3.1350 H   0  0  0  0  0  0  0  0  0  0  0  0
   -8.0720  -29.4490    2.1010 H   0  0  0  0  0  0  0  0  0  0  0  0
   -6.1340  -28.4000    3.2900 H   0  0  0  0  0  0  0  0  0  0  0  0
   -6.5600  -26.8180    2.5930 H   0  0  0  0  0  0  0  0  0  0  0  0
   -3.5450  -30.5120    1.8260 H   0  0  0  0  0  0  0  0  0  0  0  0
   -4.8280  -30.7600    0.6180 H   0  0  0  0  0  0  0  0  0  0  0  0
   -0.9980  -33.6550    0.8060 H   0  0  0  0  0  0  0  0  0  0  0  0
    0.4990  -33.8380   -0.1390 H   0  0  0  0  0  0  0  0  0  0  0  0
    1.0270  -33.6660    2.2890 H   0  0  0  0  0  0  0  0  0  0  0  0
    0.1820  -32.1020    2.3720 H   0  0  0  0  0  0  0  0  0  0  0  0
   15.1110  -29.3220   -2.4620 H   0  0  0  0  0  0  0  0  0  0  0  0
   15.7900  -30.5050   -1.3190 H   0  0  0  0  0  0  0  0  0  0  0  0
   15.5110  -28.8260   -0.8010 H   0  0  0  0  0  0  0  0  0  0  0  0
   12.8260  -28.5680   -2.3100 H   0  0  0  0  0  0  0  0  0  0  0  0
   13.1050  -27.9600   -0.6610 H   0  0  0  0  0  0  0  0  0  0  0  0
   11.7590  -29.0790   -0.9800 H   0  0  0  0  0  0  0  0  0  0  0  0
   13.2310  -30.8140   -2.9200 H   0  0  0  0  0  0  0  0  0  0  0  0
   12.2320  -31.4660   -1.5990 H   0  0  0  0  0  0  0  0  0  0  0  0
   13.9170  -32.0070   -1.7930 H   0  0  0  0  0  0  0  0  0  0  0  0
   15.1510  -34.2280    0.4550 H   0  0  0  0  0  0  0  0  0  0  0  0
   15.2620  -33.8850   -1.9760 H   0  0  0  0  0  0  0  0  0  0  0  0
   16.5660  -31.8880   -6.6370 H   0  0  0  0  0  0  0  0  0  0  0  0
  1  2  1  0  0  0  0
  1113  1  0  0  0  0
  1114  1  0  0  0  0
  1115  1  0  0  0  0
  2  3  2  0  0  0  0
  2112  1  0  0  0  0
  3  4  1  0  0  0  0
  3110  1  0  0  0  0
  4  5  1  0  0  0  0
  4109  2  0  0  0  0
  5  6  2  0  0  0  0
  5116  1  0  0  0  0
  6  7  1  0  0  0  0
  6117  1  0  0  0  0
  7  8  1  0  0  0  0
  7108  2  0  0  0  0
  8  9  1  0  0  0  0
  8 10  1  0  0  0  0
  8118  1  0  0  0  0
  9119  1  0  0  0  0
  9120  1  0  0  0  0
  9121  1  0  0  0  0
 10 11  1  0  0  0  0
 10122  1  0  0  0  0
 11 12  2  0  0  0  0
 11 13  1  0  0  0  0
 13 14  1  0  0  0  0
 13 18  1  0  0  0  0
 13123  1  0  0  0  0
 14 15  1  0  0  0  0
 14124  1  0  0  0  0
 14125  1  0  0  0  0
 15 16  1  0  0  0  0
 15 17  1  0  0  0  0
 15126  1  0  0  0  0
 16127  1  0  0  0  0
 17 18  1  0  0  0  0
 17128  1  0  0  0  0
 17129  1  0  0  0  0
 18 19  1  0  0  0  0
 19 20  2  0  0  0  0
 19 21  1  0  0  0  0
 21 22  1  0  0  0  0
 21104  1  0  0  0  0
 21130  1  0  0  0  0
 22 23  1  0  0  0  0
 22131  1  0  0  0  0
 23 24  2  0  0  0  0
 23 25  1  0  0  0  0
 25 26  1  0  0  0  0
 25132  1  0  0  0  0
 25133  1  0  0  0  0
 26 27  1  0  0  0  0
 26134  1  0  0  0  0
 26135  1  0  0  0  0
 27 28  1  0  0  0  0
 27136  1  0  0  0  0
 27137  1  0  0  0  0
 28 29  1  0  0  0  0
 28138  1  0  0  0  0
 28139  1  0  0  0  0
 29 30  1  0  0  0  0
 29140  1  0  0  0  0
 29141  1  0  0  0  0
 30 31  1  0  0  0  0
 30142  1  0  0  0  0
 30143  1  0  0  0  0
 31 32  2  0  0  0  0
 31 33  1  0  0  0  0
 33 34  1  0  0  0  0
 33103  1  0  0  0  0
 34 35  1  0  0  0  0
 34144  1  0  0  0  0
 34145  1  0  0  0  0
 35 36  1  0  0  0  0
 35146  1  0  0  0  0
 35147  1  0  0  0  0
 36 37  1  0  0  0  0
 36102  1  0  0  0  0
 36148  1  0  0  0  0
 37 38  1  0  0  0  0
 37149  1  0  0  0  0
 37150  1  0  0  0  0
 38 39  1  0  0  0  0
 38 40  1  0  0  0  0
 38101  1  0  0  0  0
 39151  1  0  0  0  0
 39152  1  0  0  0  0
 39153  1  0  0  0  0
 40 41  1  0  0  0  0
 40154  1  0  0  0  0
 40155  1  0  0  0  0
 41 42  1  0  0  0  0
 41156  1  0  0  0  0
 41157  1  0  0  0  0
 42 43  1  0  0  0  0
 42 50  2  0  0  0  0
 43 44  1  0  0  0  0
 43 49  2  0  0  0  0
 44 45  2  0  0  0  0
 44158  1  0  0  0  0
 45 46  1  0  0  0  0
 45159  1  0  0  0  0
 46 47  1  0  0  0  0
 46 48  2  0  0  0  0
 48 49  1  0  0  0  0
 48160  1  0  0  0  0
 49161  1  0  0  0  0
 50 51  1  0  0  0  0
 50101  1  0  0  0  0
 51 52  1  0  0  0  0
 51162  1  0  0  0  0
 51163  1  0  0  0  0
 52 53  1  0  0  0  0
 52100  1  0  0  0  0
 52164  1  0  0  0  0
 53 54  1  0  0  0  0
 53165  1  0  0  0  0
 53166  1  0  0  0  0
 54 55  1  0  0  0  0
 54167  1  0  0  0  0
 54168  1  0  0  0  0
 55 56  1  0  0  0  0
 55 99  1  0  0  0  0
 56 57  1  0  0  0  0
 56 98  2  0  0  0  0
 57 58  2  0  0  0  0
 57169  1  0  0  0  0
 58 59  1  0  0  0  0
 58170  1  0  0  0  0
 59 60  1  0  0  0  0
 59 97  2  0  0  0  0
 60 61  2  0  0  0  0
 60 62  1  0  0  0  0
 62 63  1  0  0  0  0
 62171  1  0  0  0  0
 63 64  2  0  0  0  0
 63 65  2  0  0  0  0
 63 66  1  0  0  0  0
 66 67  1  0  0  0  0
 66 96  2  0  0  0  0
 67 68  2  0  0  0  0
 67172  1  0  0  0  0
 68 69  1  0  0  0  0
 68173  1  0  0  0  0
 69 70  1  0  0  0  0
 69 88  2  0  0  0  0
 70 71  1  0  0  0  0
 70174  1  0  0  0  0
 71 72  1  0  0  0  0
 71 80  1  0  0  0  0
 71175  1  0  0  0  0
 72 73  1  0  0  0  0
 72176  1  0  0  0  0
 72177  1  0  0  0  0
 73 74  1  0  0  0  0
 73178  1  0  0  0  0
 73179  1  0  0  0  0
 74 75  1  0  0  0  0
 74 79  1  0  0  0  0
 74180  1  0  0  0  0
 75 76  1  0  0  0  0
 75181  1  0  0  0  0
 75182  1  0  0  0  0
 76 77  1  0  0  0  0
 76183  1  0  0  0  0
 76184  1  0  0  0  0
 77 78  1  0  0  0  0
 78 79  1  0  0  0  0
 78185  1  0  0  0  0
 78186  1  0  0  0  0
 79187  1  0  0  0  0
 79188  1  0  0  0  0
 80 81  1  0  0  0  0
 80189  1  0  0  0  0
 80190  1  0  0  0  0
 81 82  1  0  0  0  0
 82 83  1  0  0  0  0
 82 87  2  0  0  0  0
 83 84  2  0  0  0  0
 83191  1  0  0  0  0
 84 85  1  0  0  0  0
 84192  1  0  0  0  0
 85 86  2  0  0  0  0
 85193  1  0  0  0  0
 86 87  1  0  0  0  0
 86194  1  0  0  0  0
 87195  1  0  0  0  0
 88 89  1  0  0  0  0
 88 96  1  0  0  0  0
 89 90  2  0  0  0  0
 89 91  2  0  0  0  0
 89 92  1  0  0  0  0
 92 93  1  0  0  0  0
 92 94  1  0  0  0  0
 92 95  1  0  0  0  0
 96196  1  0  0  0  0
 97 98  1  0  0  0  0
 97197  1  0  0  0  0
 98198  1  0  0  0  0
 99100  1  0  0  0  0
 99199  1  0  0  0  0
 99200  1  0  0  0  0
100201  1  0  0  0  0
100202  1  0  0  0  0
101203  1  0  0  0  0
101204  1  0  0  0  0
102103  1  0  0  0  0
102205  1  0  0  0  0
102206  1  0  0  0  0
103207  1  0  0  0  0
103208  1  0  0  0  0
104105  1  0  0  0  0
104106  1  0  0  0  0
104107  1  0  0  0  0
105209  1  0  0  0  0
105210  1  0  0  0  0
105211  1  0  0  0  0
106212  1  0  0  0  0
106213  1  0  0  0  0
106214  1  0  0  0  0
107215  1  0  0  0  0
107216  1  0  0  0  0
107217  1  0  0  0  0
108109  1  0  0  0  0
108218  1  0  0  0  0
109219  1  0  0  0  0
110111  1  0  0  0  0
111112  2  0  0  0  0
111220  1  0  0  0  0
M  CHG  1  36   1
M  CHG  1  52   1
M  CHG  1  74   1
M  END
>  <Compound ID>
3216

>  <Uniprot>
P10415

>  <Target>
BCL2

>  <E3 ligase>
VHL

>  <Name>
PPC8

>  <Dmax (%)>
94

>  <Assay (DC50/Dmax)>
Degradation of BCL2 in 293T cells after 16 h treatment

>  <Article DOI>
10.1038/s41467-021-27210-x

>  <Molecular Weight>
1641.5229

>  <Exact Mass>
1639.6519

>  <XLogP3>
12.31

>  <Heavy Atom Count>
112

>  <Ring Count>
11

>  <Hydrogen Bond Acceptor Count>
19

>  <Hydrogen Bond Donor Count>
5

>  <Rotatable Bond Count>
31

>  <Topological Polar Surface Area>
263.54001

>  <Molecular Formula>
C82H105ClF3N11O11S4

>  <InChI>
InChI=1S/C82H105ClF3N11O11S4/c1-56(58-18-20-60(21-19-58)75-57(2)87-55-110-75)88-78(102)71-48-66(98)52-97(71)79(103)76(80(3,4)5)90-73(99)16-12-7-8-13-17-74(100)96-42-38-94(39-43-96)54-81(6)34-32-69(59-22-26-63(83)27-23-59)62(50-81)51-93-36-40-95(41-37-93)65-28-24-61(25-29-65)77(101)91-112(106,107)68-30-31-70(72(49-68)111(104,105)82(84,85)86)89-64(33-35-92-44-46-108-47-45-92)53-109-67-14-10-9-11-15-67/h9-11,14-15,18-31,49,55-56,64,66,71,76,89,98H,7-8,12-13,16-17,32-48,50-54H2,1-6H3,(H,88,102)(H,90,99)(H,91,101)/t56-,64+,66+,71-,76+,81?/m0/s1

>  <InChI Key>
KQEMZZJSHJCPSI-KGENNJKMSA-N

>  <DC50 (nM)>
54

$$$$
3217
  MOE2018           3D

223233  0  0  1  0  0  0  0  0999 V2000
   37.3670   32.6870   -1.1520 C   0  0  0  0  0  0  0  0  0  0  0  0
   36.1480   33.5710   -1.0210 C   0  0  0  0  0  0  0  0  0  0  0  0
   35.0360   33.2800   -0.2710 C   0  0  0  0  0  0  0  0  0  0  0  0
   34.7400   32.0980    0.5290 C   0  0  0  0  0  0  0  0  0  0  0  0
   34.9350   30.8120    0.0150 C   0  0  0  0  0  0  0  0  0  0  0  0
   34.6390   29.6870    0.7760 C   0  0  0  0  0  0  0  0  0  0  0  0
   34.1330   29.8190    2.0730 C   0  0  0  0  0  0  0  0  0  0  0  0
   33.7670   28.6060    2.9170 C   0  0  2  0  0  0  0  0  0  0  0  0
   35.0270   27.7630    3.1490 C   0  0  0  0  0  0  0  0  0  0  0  0
   32.8570   27.8140    2.1200 N   0  0  0  0  0  0  0  0  0  0  0  0
   31.9850   26.9400    2.6170 C   0  0  0  0  0  0  0  0  0  0  0  0
   31.9010   26.7680    3.8290 O   0  0  0  0  0  0  0  0  0  0  0  0
   31.0590   26.1150    1.6740 C   0  0  2  0  0  0  0  0  0  0  0  0
   31.7280   24.8500    1.1440 C   0  0  0  0  0  0  0  0  0  0  0  0
   30.6750   24.3140    0.1780 C   0  0  1  0  0  0  0  0  0  0  0  0
   29.7980   23.4510    0.8770 O   0  0  0  0  0  0  0  0  0  0  0  0
   29.9490   25.5740   -0.3210 C   0  0  0  0  0  0  0  0  0  0  0  0
   30.4210   26.7090    0.4800 N   0  0  0  0  0  0  0  0  0  0  0  0
   30.9020   27.7430   -0.2380 C   0  0  0  0  0  0  0  0  0  0  0  0
   32.1050   27.8020   -0.4900 O   0  0  0  0  0  0  0  0  0  0  0  0
   29.9110   28.7480   -0.9120 C   0  0  1  0  0  0  0  0  0  0  0  0
   28.5270   28.2460   -1.0320 N   0  0  0  0  0  0  0  0  0  0  0  0
   28.0730   27.6110   -2.1070 C   0  0  0  0  0  0  0  0  0  0  0  0
   28.8070   27.3130   -3.0370 O   0  0  0  0  0  0  0  0  0  0  0  0
   26.6020   27.2170   -2.1290 C   0  0  0  0  0  0  0  0  0  0  0  0
   25.6490   28.4240   -2.0610 C   0  0  0  0  0  0  0  0  0  0  0  0
   24.2090   27.9850   -2.3600 C   0  0  0  0  0  0  0  0  0  0  0  0
   23.2200   29.1430   -2.1680 C   0  0  0  0  0  0  0  0  0  0  0  0
   21.8320   28.7360   -2.6810 C   0  0  0  0  0  0  0  0  0  0  0  0
   20.7840   29.8160   -2.3750 C   0  0  0  0  0  0  0  0  0  0  0  0
   19.4510   29.4820   -3.0730 C   0  0  0  0  0  0  0  0  0  0  0  0
   18.2930   30.4330   -2.7370 C   0  0  0  0  0  0  0  0  0  0  0  0
   18.4160   31.2380   -1.8240 O   0  0  0  0  0  0  0  0  0  0  0  0
   17.1280   30.3490   -3.4220 N   0  0  0  0  0  0  0  0  0  0  0  0
   16.8630   29.3820   -4.5200 C   0  0  0  0  0  0  0  0  0  0  0  0
   15.5500   28.6440   -4.1570 C   0  0  0  0  0  0  0  0  0  0  0  0
   14.4590   29.6650   -4.0080 N   0  3  0  0  0  0  0  0  0  0  0  0
   13.1110   28.9880   -3.9220 C   0  0  0  0  0  0  0  0  0  0  0  0
   12.6350   28.3370   -2.5600 C   0  0  2  0  0  0  0  0  0  0  0  0
   12.1110   29.4380   -1.6010 C   0  0  0  0  0  0  0  0  0  0  0  0
   13.7200   27.4450   -1.9020 C   0  0  0  0  0  0  0  0  0  0  0  0
   13.1990   26.8450   -0.5800 C   0  0  0  0  0  0  0  0  0  0  0  0
   11.8860   26.1240   -0.8250 C   0  0  0  0  0  0  0  0  0  0  0  0
   11.5790   25.1010    0.1710 C   0  0  0  0  0  0  0  0  0  0  0  0
   11.4480   23.7540   -0.1970 C   0  0  0  0  0  0  0  0  0  0  0  0
   11.1230   22.7880    0.7480 C   0  0  0  0  0  0  0  0  0  0  0  0
   10.9390   23.1540    2.0820 C   0  0  0  0  0  0  0  0  0  0  0  0
   10.5130   21.9560    3.2590 Cl  0  0  0  0  0  0  0  0  0  0  0  0
   11.0990   24.4850    2.4680 C   0  0  0  0  0  0  0  0  0  0  0  0
   11.4220   25.4480    1.5200 C   0  0  0  0  0  0  0  0  0  0  0  0
   11.0730   26.4150   -1.8710 C   0  0  0  0  0  0  0  0  0  0  0  0
    9.7680   25.6730   -2.1100 C   0  0  0  0  0  0  0  0  0  0  0  0
    8.7350   26.5560   -1.5660 N   0  3  0  0  0  0  0  0  0  0  0  0
    8.5330   26.1780   -0.1200 C   0  0  0  0  0  0  0  0  0  0  0  0
    7.3960   27.0370    0.4920 C   0  0  0  0  0  0  0  0  0  0  0  0
    6.1850   26.7720   -0.3220 N   0  0  0  0  0  0  0  0  0  0  0  0
    4.9390   26.8650    0.3160 C   0  0  0  0  0  0  0  0  0  0  0  0
    4.6960   26.0690    1.4420 C   0  0  0  0  0  0  0  0  0  0  0  0
    3.4630   26.1170    2.0750 C   0  0  0  0  0  0  0  0  0  0  0  0
    2.4360   26.9530    1.5960 C   0  0  0  0  0  0  0  0  0  0  0  0
    1.1180   26.9980    2.2330 C   0  0  0  0  0  0  0  0  0  0  0  0
    0.3340   27.9180    2.0790 O   0  0  0  0  0  0  0  0  0  0  0  0
    0.7300   25.9430    2.9890 N   0  0  0  0  0  0  0  0  0  0  0  0
   -0.7500   25.8870    3.7220 S   0  0  0  0  0  0  0  0  0  0  0  0
   -0.7800   24.6890    4.4750 O   0  0  0  0  0  0  0  0  0  0  0  0
   -0.9740   27.0850    4.4420 O   0  0  0  0  0  0  0  0  0  0  0  0
   -1.9750   25.7510    2.3870 C   0  0  0  0  0  0  0  0  0  0  0  0
   -2.5320   26.8930    1.8070 C   0  0  0  0  0  0  0  0  0  0  0  0
   -3.5070   26.7880    0.8260 C   0  0  0  0  0  0  0  0  0  0  0  0
   -3.9690   25.5330    0.4230 C   0  0  0  0  0  0  0  0  0  0  0  0
   -5.0140   25.4970   -0.5130 N   0  0  0  0  0  0  0  0  0  0  0  0
   -6.4020   25.6260    0.0070 C   0  0  2  0  0  0  0  0  0  0  0  0
   -7.3240   25.5020   -1.2260 C   0  0  0  0  0  0  0  0  0  0  0  0
   -7.2650   24.0430   -1.7020 C   0  0  0  0  0  0  0  0  0  0  0  0
   -8.2670   23.9160   -2.7750 N   0  3  0  0  0  0  0  0  0  0  0  0
   -8.5500   22.4540   -2.9380 C   0  0  0  0  0  0  0  0  0  0  0  0
   -9.5930   22.2960   -4.0700 C   0  0  0  0  0  0  0  0  0  0  0  0
   -9.0110   22.8440   -5.2510 O   0  0  0  0  0  0  0  0  0  0  0  0
   -8.7220   24.2380   -5.1750 C   0  0  0  0  0  0  0  0  0  0  0  0
   -7.6690   24.4210   -4.0570 C   0  0  0  0  0  0  0  0  0  0  0  0
   -6.6040   26.9900    0.7020 C   0  0  0  0  0  0  0  0  0  0  0  0
   -8.2960   26.9730    1.4030 S   0  0  0  0  0  0  0  0  0  0  0  0
   -8.5820   28.5550    2.1000 C   0  0  0  0  0  0  0  0  0  0  0  0
   -7.6010   29.5580    2.1400 C   0  0  0  0  0  0  0  0  0  0  0  0
   -7.8910   30.7980    2.6980 C   0  0  0  0  0  0  0  0  0  0  0  0
   -9.1540   31.0540    3.2240 C   0  0  0  0  0  0  0  0  0  0  0  0
  -10.1300   30.0620    3.1930 C   0  0  0  0  0  0  0  0  0  0  0  0
   -9.8470   28.8200    2.6370 C   0  0  0  0  0  0  0  0  0  0  0  0
   -3.3840   24.3610    0.9440 C   0  0  0  0  0  0  0  0  0  0  0  0
   -3.8250   22.6930    0.3860 S   0  0  0  0  0  0  0  0  0  0  0  0
   -4.1250   21.9100    1.5340 O   0  0  0  0  0  0  0  0  0  0  0  0
   -4.8780   22.7750   -0.5850 O   0  0  0  0  0  0  0  0  0  0  0  0
   -2.2320   22.0790   -0.4420 C   0  0  0  0  0  0  0  0  0  0  0  0
   -1.8420   22.8470   -1.4860 F   0  0  0  0  0  0  0  0  0  0  0  0
   -2.3070   20.8280   -0.9460 F   0  0  0  0  0  0  0  0  0  0  0  0
   -1.1550   22.0620    0.3790 F   0  0  0  0  0  0  0  0  0  0  0  0
   -2.4180   24.4970    1.9490 C   0  0  0  0  0  0  0  0  0  0  0  0
    2.7020   27.7580    0.4750 C   0  0  0  0  0  0  0  0  0  0  0  0
    3.9350   27.7170   -0.1620 C   0  0  0  0  0  0  0  0  0  0  0  0
    6.3150   27.1480   -1.7460 C   0  0  0  0  0  0  0  0  0  0  0  0
    7.4600   26.2700   -2.3140 C   0  0  0  0  0  0  0  0  0  0  0  0
   11.4320   27.4270   -2.9610 C   0  0  0  0  0  0  0  0  0  0  0  0
   14.7640   30.5460   -2.8310 C   0  0  0  0  0  0  0  0  0  0  0  0
   16.0470   31.3450   -3.1600 C   0  0  0  0  0  0  0  0  0  0  0  0
   29.8800   30.1470   -0.2110 C   0  0  0  0  0  0  0  0  0  0  0  0
   29.4420   30.0570    1.2650 C   0  0  0  0  0  0  0  0  0  0  0  0
   31.2640   30.8220   -0.2470 C   0  0  0  0  0  0  0  0  0  0  0  0
   28.9200   31.1180   -0.9370 C   0  0  0  0  0  0  0  0  0  0  0  0
   33.9390   31.1000    2.5910 C   0  0  0  0  0  0  0  0  0  0  0  0
   34.2380   32.2240    1.8290 C   0  0  0  0  0  0  0  0  0  0  0  0
   33.9100   34.5690   -0.3890 S   0  0  0  0  0  0  0  0  0  0  0  0
   34.9960   35.3840   -1.4420 C   0  0  0  0  0  0  0  0  0  0  0  0
   36.1110   34.7560   -1.6830 N   0  0  0  0  0  0  0  0  0  0  0  0
   37.2260   31.7840   -0.5590 H   0  0  0  0  0  0  0  0  0  0  0  0
   38.2450   33.2240   -0.7940 H   0  0  0  0  0  0  0  0  0  0  0  0
   37.5090   32.4160   -2.1980 H   0  0  0  0  0  0  0  0  0  0  0  0
   35.3210   30.6910   -0.9870 H   0  0  0  0  0  0  0  0  0  0  0  0
   34.8010   28.7030    0.3620 H   0  0  0  0  0  0  0  0  0  0  0  0
   33.3340   28.9070    3.8710 H   0  0  0  0  0  0  0  0  0  0  0  0
   35.4490   27.4690    2.1880 H   0  0  0  0  0  0  0  0  0  0  0  0
   34.7680   26.8710    3.7200 H   0  0  0  0  0  0  0  0  0  0  0  0
   35.7590   28.3490    3.7040 H   0  0  0  0  0  0  0  0  0  0  0  0
   32.8850   27.9320    1.1170 H   0  0  0  0  0  0  0  0  0  0  0  0
   30.2610   25.9790    2.4040 H   0  0  0  0  0  0  0  0  0  0  0  0
   31.9260   24.1400    1.9470 H   0  0  0  0  0  0  0  0  0  0  0  0
   32.6590   25.0820    0.6260 H   0  0  0  0  0  0  0  0  0  0  0  0
   31.0890   23.7360   -0.6480 H   0  0  0  0  0  0  0  0  0  0  0  0
   29.4250   23.9470    1.6090 H   0  0  0  0  0  0  0  0  0  0  0  0
   28.8730   25.4550   -0.1980 H   0  0  0  0  0  0  0  0  0  0  0  0
   30.1780   25.7420   -1.3730 H   0  0  0  0  0  0  0  0  0  0  0  0
   30.3180   28.8600   -1.9170 H   0  0  0  0  0  0  0  0  0  0  0  0
   27.8940   28.3930   -0.2580 H   0  0  0  0  0  0  0  0  0  0  0  0
   26.4040   26.6710   -3.0510 H   0  0  0  0  0  0  0  0  0  0  0  0
   26.4040   26.5710   -1.2740 H   0  0  0  0  0  0  0  0  0  0  0  0
   25.6920   28.8600   -1.0630 H   0  0  0  0  0  0  0  0  0  0  0  0
   25.9580   29.1680   -2.7960 H   0  0  0  0  0  0  0  0  0  0  0  0
   24.1510   27.6360   -3.3910 H   0  0  0  0  0  0  0  0  0  0  0  0
   23.9390   27.1720   -1.6860 H   0  0  0  0  0  0  0  0  0  0  0  0
   23.5700   30.0130   -2.7240 H   0  0  0  0  0  0  0  0  0  0  0  0
   23.1550   29.3910   -1.1090 H   0  0  0  0  0  0  0  0  0  0  0  0
   21.5340   27.8050   -2.1980 H   0  0  0  0  0  0  0  0  0  0  0  0
   21.8820   28.5860   -3.7590 H   0  0  0  0  0  0  0  0  0  0  0  0
   21.1460   30.7800   -2.7330 H   0  0  0  0  0  0  0  0  0  0  0  0
   20.6230   29.8660   -1.2980 H   0  0  0  0  0  0  0  0  0  0  0  0
   19.1580   28.4740   -2.7800 H   0  0  0  0  0  0  0  0  0  0  0  0
   19.6150   29.5140   -4.1500 H   0  0  0  0  0  0  0  0  0  0  0  0
   16.7470   29.9110   -5.4660 H   0  0  0  0  0  0  0  0  0  0  0  0
   17.6840   28.6700   -4.6000 H   0  0  0  0  0  0  0  0  0  0  0  0
   15.6790   28.1030   -3.2190 H   0  0  0  0  0  0  0  0  0  0  0  0
   15.2910   27.9420   -4.9490 H   0  0  0  0  0  0  0  0  0  0  0  0
   14.4180   30.2600   -4.8230 H   0  0  0  0  0  0  0  0  0  0  0  0
   12.3660   29.7370   -4.1900 H   0  0  0  0  0  0  0  0  0  0  0  0
   13.1110   28.1930   -4.6670 H   0  0  0  0  0  0  0  0  0  0  0  0
   11.7860   28.9810   -0.6660 H   0  0  0  0  0  0  0  0  0  0  0  0
   11.2710   29.9540   -2.0650 H   0  0  0  0  0  0  0  0  0  0  0  0
   12.9090   30.1520   -1.3980 H   0  0  0  0  0  0  0  0  0  0  0  0
   13.9810   26.6360   -2.5840 H   0  0  0  0  0  0  0  0  0  0  0  0
   14.6050   28.0480   -1.6980 H   0  0  0  0  0  0  0  0  0  0  0  0
   13.0430   27.6450    0.1440 H   0  0  0  0  0  0  0  0  0  0  0  0
   13.9320   26.1390   -0.1890 H   0  0  0  0  0  0  0  0  0  0  0  0
   11.6010   23.4640   -1.2260 H   0  0  0  0  0  0  0  0  0  0  0  0
   11.0130   21.7560    0.4500 H   0  0  0  0  0  0  0  0  0  0  0  0
   10.9720   24.7670    3.5030 H   0  0  0  0  0  0  0  0  0  0  0  0
   11.5540   26.4750    1.8260 H   0  0  0  0  0  0  0  0  0  0  0  0
    9.7690   24.7160   -1.5890 H   0  0  0  0  0  0  0  0  0  0  0  0
    9.6100   25.5070   -3.1760 H   0  0  0  0  0  0  0  0  0  0  0  0
    8.9910   27.5290   -1.6500 H   0  0  0  0  0  0  0  0  0  0  0  0
    8.2650   25.1230   -0.0550 H   0  0  0  0  0  0  0  0  0  0  0  0
    9.4560   26.3530    0.4320 H   0  0  0  0  0  0  0  0  0  0  0  0
    7.6570   28.0940    0.4470 H   0  0  0  0  0  0  0  0  0  0  0  0
    7.2230   26.7500    1.5290 H   0  0  0  0  0  0  0  0  0  0  0  0
    5.4700   25.4170    1.8180 H   0  0  0  0  0  0  0  0  0  0  0  0
    3.2880   25.5050    2.9470 H   0  0  0  0  0  0  0  0  0  0  0  0
    1.3650   25.1670    3.1080 H   0  0  0  0  0  0  0  0  0  0  0  0
   -2.2000   27.8700    2.1260 H   0  0  0  0  0  0  0  0  0  0  0  0
   -3.9110   27.6810    0.3720 H   0  0  0  0  0  0  0  0  0  0  0  0
   -4.8310   25.3880   -1.5000 H   0  0  0  0  0  0  0  0  0  0  0  0
   -6.6210   24.8610    0.7520 H   0  0  0  0  0  0  0  0  0  0  0  0
   -8.3470   25.7640   -0.9540 H   0  0  0  0  0  0  0  0  0  0  0  0
   -6.9780   26.1660   -2.0180 H   0  0  0  0  0  0  0  0  0  0  0  0
   -7.5050   23.3680   -0.8800 H   0  0  0  0  0  0  0  0  0  0  0  0
   -6.2710   23.8110   -2.0850 H   0  0  0  0  0  0  0  0  0  0  0  0
   -9.1040   24.4370   -2.5550 H   0  0  0  0  0  0  0  0  0  0  0  0
   -7.6340   21.9260   -3.2020 H   0  0  0  0  0  0  0  0  0  0  0  0
   -8.9480   22.0480   -2.0080 H   0  0  0  0  0  0  0  0  0  0  0  0
  -10.5050   22.8360   -3.8170 H   0  0  0  0  0  0  0  0  0  0  0  0
   -9.8250   21.2420   -4.2210 H   0  0  0  0  0  0  0  0  0  0  0  0
   -8.3230   24.5900   -6.1260 H   0  0  0  0  0  0  0  0  0  0  0  0
   -9.6270   24.7950   -4.9320 H   0  0  0  0  0  0  0  0  0  0  0  0
   -7.4140   25.4760   -3.9570 H   0  0  0  0  0  0  0  0  0  0  0  0
   -6.7710   23.8520   -4.2970 H   0  0  0  0  0  0  0  0  0  0  0  0
   -6.5040   27.7990   -0.0210 H   0  0  0  0  0  0  0  0  0  0  0  0
   -5.8690   27.1200    1.4960 H   0  0  0  0  0  0  0  0  0  0  0  0
   -6.6180   29.3660    1.7360 H   0  0  0  0  0  0  0  0  0  0  0  0
   -7.1330   31.5660    2.7230 H   0  0  0  0  0  0  0  0  0  0  0  0
   -9.3760   32.0190    3.6550 H   0  0  0  0  0  0  0  0  0  0  0  0
  -11.1100   30.2580    3.6020 H   0  0  0  0  0  0  0  0  0  0  0  0
  -10.6080   28.0540    2.6190 H   0  0  0  0  0  0  0  0  0  0  0  0
   -2.0020   23.6080    2.4000 H   0  0  0  0  0  0  0  0  0  0  0  0
    1.9340   28.4200    0.1030 H   0  0  0  0  0  0  0  0  0  0  0  0
    4.1200   28.3410   -1.0240 H   0  0  0  0  0  0  0  0  0  0  0  0
    5.3850   26.9480   -2.2770 H   0  0  0  0  0  0  0  0  0  0  0  0
    6.5660   28.2050   -1.8380 H   0  0  0  0  0  0  0  0  0  0  0  0
    7.6010   26.4970   -3.3710 H   0  0  0  0  0  0  0  0  0  0  0  0
    7.2010   25.2170   -2.2000 H   0  0  0  0  0  0  0  0  0  0  0  0
   11.6920   26.8840   -3.8700 H   0  0  0  0  0  0  0  0  0  0  0  0
   10.5640   28.0590   -3.1510 H   0  0  0  0  0  0  0  0  0  0  0  0
   13.9350   31.2310   -2.6560 H   0  0  0  0  0  0  0  0  0  0  0  0
   14.9250   29.9360   -1.9420 H   0  0  0  0  0  0  0  0  0  0  0  0
   16.3190   31.9790   -2.3160 H   0  0  0  0  0  0  0  0  0  0  0  0
   15.8860   31.9640   -4.0430 H   0  0  0  0  0  0  0  0  0  0  0  0
   29.4370   31.0550    1.7040 H   0  0  0  0  0  0  0  0  0  0  0  0
   30.1390   29.4220    1.8130 H   0  0  0  0  0  0  0  0  0  0  0  0
   28.4400   29.6310    1.3210 H   0  0  0  0  0  0  0  0  0  0  0  0
   31.2080   31.7920    0.2480 H   0  0  0  0  0  0  0  0  0  0  0  0
   31.5740   30.9600   -1.2830 H   0  0  0  0  0  0  0  0  0  0  0  0
   31.9890   30.1920    0.2680 H   0  0  0  0  0  0  0  0  0  0  0  0
   28.9210   32.0800   -0.4250 H   0  0  0  0  0  0  0  0  0  0  0  0
   27.9120   30.7040   -0.9300 H   0  0  0  0  0  0  0  0  0  0  0  0
   29.2500   31.2530   -1.9670 H   0  0  0  0  0  0  0  0  0  0  0  0
   33.5530   31.2200    3.5930 H   0  0  0  0  0  0  0  0  0  0  0  0
   34.0810   33.2080    2.2460 H   0  0  0  0  0  0  0  0  0  0  0  0
   34.7700   36.3480   -1.8730 H   0  0  0  0  0  0  0  0  0  0  0  0
  1  2  1  0  0  0  0
  1114  1  0  0  0  0
  1115  1  0  0  0  0
  1116  1  0  0  0  0
  2  3  2  0  0  0  0
  2113  1  0  0  0  0
  3  4  1  0  0  0  0
  3111  1  0  0  0  0
  4  5  1  0  0  0  0
  4110  2  0  0  0  0
  5  6  2  0  0  0  0
  5117  1  0  0  0  0
  6  7  1  0  0  0  0
  6118  1  0  0  0  0
  7  8  1  0  0  0  0
  7109  2  0  0  0  0
  8  9  1  0  0  0  0
  8 10  1  0  0  0  0
  8119  1  0  0  0  0
  9120  1  0  0  0  0
  9121  1  0  0  0  0
  9122  1  0  0  0  0
 10 11  1  0  0  0  0
 10123  1  0  0  0  0
 11 12  2  0  0  0  0
 11 13  1  0  0  0  0
 13 14  1  0  0  0  0
 13 18  1  0  0  0  0
 13124  1  0  0  0  0
 14 15  1  0  0  0  0
 14125  1  0  0  0  0
 14126  1  0  0  0  0
 15 16  1  0  0  0  0
 15 17  1  0  0  0  0
 15127  1  0  0  0  0
 16128  1  0  0  0  0
 17 18  1  0  0  0  0
 17129  1  0  0  0  0
 17130  1  0  0  0  0
 18 19  1  0  0  0  0
 19 20  2  0  0  0  0
 19 21  1  0  0  0  0
 21 22  1  0  0  0  0
 21105  1  0  0  0  0
 21131  1  0  0  0  0
 22 23  1  0  0  0  0
 22132  1  0  0  0  0
 23 24  2  0  0  0  0
 23 25  1  0  0  0  0
 25 26  1  0  0  0  0
 25133  1  0  0  0  0
 25134  1  0  0  0  0
 26 27  1  0  0  0  0
 26135  1  0  0  0  0
 26136  1  0  0  0  0
 27 28  1  0  0  0  0
 27137  1  0  0  0  0
 27138  1  0  0  0  0
 28 29  1  0  0  0  0
 28139  1  0  0  0  0
 28140  1  0  0  0  0
 29 30  1  0  0  0  0
 29141  1  0  0  0  0
 29142  1  0  0  0  0
 30 31  1  0  0  0  0
 30143  1  0  0  0  0
 30144  1  0  0  0  0
 31 32  1  0  0  0  0
 31145  1  0  0  0  0
 31146  1  0  0  0  0
 32 33  2  0  0  0  0
 32 34  1  0  0  0  0
 34 35  1  0  0  0  0
 34104  1  0  0  0  0
 35 36  1  0  0  0  0
 35147  1  0  0  0  0
 35148  1  0  0  0  0
 36 37  1  0  0  0  0
 36149  1  0  0  0  0
 36150  1  0  0  0  0
 37 38  1  0  0  0  0
 37103  1  0  0  0  0
 37151  1  0  0  0  0
 38 39  1  0  0  0  0
 38152  1  0  0  0  0
 38153  1  0  0  0  0
 39 40  1  0  0  0  0
 39 41  1  0  0  0  0
 39102  1  0  0  0  0
 40154  1  0  0  0  0
 40155  1  0  0  0  0
 40156  1  0  0  0  0
 41 42  1  0  0  0  0
 41157  1  0  0  0  0
 41158  1  0  0  0  0
 42 43  1  0  0  0  0
 42159  1  0  0  0  0
 42160  1  0  0  0  0
 43 44  1  0  0  0  0
 43 51  2  0  0  0  0
 44 45  1  0  0  0  0
 44 50  2  0  0  0  0
 45 46  2  0  0  0  0
 45161  1  0  0  0  0
 46 47  1  0  0  0  0
 46162  1  0  0  0  0
 47 48  1  0  0  0  0
 47 49  2  0  0  0  0
 49 50  1  0  0  0  0
 49163  1  0  0  0  0
 50164  1  0  0  0  0
 51 52  1  0  0  0  0
 51102  1  0  0  0  0
 52 53  1  0  0  0  0
 52165  1  0  0  0  0
 52166  1  0  0  0  0
 53 54  1  0  0  0  0
 53101  1  0  0  0  0
 53167  1  0  0  0  0
 54 55  1  0  0  0  0
 54168  1  0  0  0  0
 54169  1  0  0  0  0
 55 56  1  0  0  0  0
 55170  1  0  0  0  0
 55171  1  0  0  0  0
 56 57  1  0  0  0  0
 56100  1  0  0  0  0
 57 58  1  0  0  0  0
 57 99  2  0  0  0  0
 58 59  2  0  0  0  0
 58172  1  0  0  0  0
 59 60  1  0  0  0  0
 59173  1  0  0  0  0
 60 61  1  0  0  0  0
 60 98  2  0  0  0  0
 61 62  2  0  0  0  0
 61 63  1  0  0  0  0
 63 64  1  0  0  0  0
 63174  1  0  0  0  0
 64 65  2  0  0  0  0
 64 66  2  0  0  0  0
 64 67  1  0  0  0  0
 67 68  1  0  0  0  0
 67 97  2  0  0  0  0
 68 69  2  0  0  0  0
 68175  1  0  0  0  0
 69 70  1  0  0  0  0
 69176  1  0  0  0  0
 70 71  1  0  0  0  0
 70 89  2  0  0  0  0
 71 72  1  0  0  0  0
 71177  1  0  0  0  0
 72 73  1  0  0  0  0
 72 81  1  0  0  0  0
 72178  1  0  0  0  0
 73 74  1  0  0  0  0
 73179  1  0  0  0  0
 73180  1  0  0  0  0
 74 75  1  0  0  0  0
 74181  1  0  0  0  0
 74182  1  0  0  0  0
 75 76  1  0  0  0  0
 75 80  1  0  0  0  0
 75183  1  0  0  0  0
 76 77  1  0  0  0  0
 76184  1  0  0  0  0
 76185  1  0  0  0  0
 77 78  1  0  0  0  0
 77186  1  0  0  0  0
 77187  1  0  0  0  0
 78 79  1  0  0  0  0
 79 80  1  0  0  0  0
 79188  1  0  0  0  0
 79189  1  0  0  0  0
 80190  1  0  0  0  0
 80191  1  0  0  0  0
 81 82  1  0  0  0  0
 81192  1  0  0  0  0
 81193  1  0  0  0  0
 82 83  1  0  0  0  0
 83 84  1  0  0  0  0
 83 88  2  0  0  0  0
 84 85  2  0  0  0  0
 84194  1  0  0  0  0
 85 86  1  0  0  0  0
 85195  1  0  0  0  0
 86 87  2  0  0  0  0
 86196  1  0  0  0  0
 87 88  1  0  0  0  0
 87197  1  0  0  0  0
 88198  1  0  0  0  0
 89 90  1  0  0  0  0
 89 97  1  0  0  0  0
 90 91  2  0  0  0  0
 90 92  2  0  0  0  0
 90 93  1  0  0  0  0
 93 94  1  0  0  0  0
 93 95  1  0  0  0  0
 93 96  1  0  0  0  0
 97199  1  0  0  0  0
 98 99  1  0  0  0  0
 98200  1  0  0  0  0
 99201  1  0  0  0  0
100101  1  0  0  0  0
100202  1  0  0  0  0
100203  1  0  0  0  0
101204  1  0  0  0  0
101205  1  0  0  0  0
102206  1  0  0  0  0
102207  1  0  0  0  0
103104  1  0  0  0  0
103208  1  0  0  0  0
103209  1  0  0  0  0
104210  1  0  0  0  0
104211  1  0  0  0  0
105106  1  0  0  0  0
105107  1  0  0  0  0
105108  1  0  0  0  0
106212  1  0  0  0  0
106213  1  0  0  0  0
106214  1  0  0  0  0
107215  1  0  0  0  0
107216  1  0  0  0  0
107217  1  0  0  0  0
108218  1  0  0  0  0
108219  1  0  0  0  0
108220  1  0  0  0  0
109110  1  0  0  0  0
109221  1  0  0  0  0
110222  1  0  0  0  0
111112  1  0  0  0  0
112113  2  0  0  0  0
112223  1  0  0  0  0
M  CHG  1  37   1
M  CHG  1  53   1
M  CHG  1  75   1
M  END
>  <Compound ID>
3217

>  <Uniprot>
P10415

>  <Target>
BCL2

>  <E3 ligase>
VHL

>  <Name>
PPC9

>  <Dmax (%)>
79

>  <Assay (DC50/Dmax)>
Degradation of BCL2 in 293T cells after 16 h treatment

>  <Article DOI>
10.1038/s41467-021-27210-x

>  <Molecular Weight>
1655.55

>  <Exact Mass>
1653.6675

>  <XLogP3>
12.86

>  <Heavy Atom Count>
113

>  <Ring Count>
11

>  <Hydrogen Bond Acceptor Count>
19

>  <Hydrogen Bond Donor Count>
5

>  <Rotatable Bond Count>
32

>  <Topological Polar Surface Area>
263.54001

>  <Molecular Formula>
C83H107ClF3N11O11S4

>  <InChI>
InChI=1S/C83H107ClF3N11O11S4/c1-57(59-19-21-61(22-20-59)76-58(2)88-56-111-76)89-79(103)72-49-67(99)53-98(72)80(104)77(81(3,4)5)91-74(100)17-13-8-7-9-14-18-75(101)97-43-39-95(40-44-97)55-82(6)35-33-70(60-23-27-64(84)28-24-60)63(51-82)52-94-37-41-96(42-38-94)66-29-25-62(26-30-66)78(102)92-113(107,108)69-31-32-71(73(50-69)112(105,106)83(85,86)87)90-65(34-36-93-45-47-109-48-46-93)54-110-68-15-11-10-12-16-68/h10-12,15-16,19-32,50,56-57,65,67,72,77,90,99H,7-9,13-14,17-18,33-49,51-55H2,1-6H3,(H,89,103)(H,91,100)(H,92,102)/t57-,65+,67+,72-,77+,82?/m0/s1

>  <InChI Key>
YCSHJMBQFQHZEP-BMNBLYSOSA-N

>  <DC50 (nM)>
316.20001

$$$$
3218
  MOE2018           3D

226236  0  0  1  0  0  0  0  0999 V2000
   20.0110   20.8230    2.2200 C   0  0  0  0  0  0  0  0  0  0  0  0
   20.5990   22.2140    2.2390 C   0  0  0  0  0  0  0  0  0  0  0  0
   20.0860   23.2980    1.5720 C   0  0  0  0  0  0  0  0  0  0  0  0
   18.8930   23.3900    0.7390 C   0  0  0  0  0  0  0  0  0  0  0  0
   17.6660   22.8800    1.1760 C   0  0  0  0  0  0  0  0  0  0  0  0
   16.5330   22.9640    0.3750 C   0  0  0  0  0  0  0  0  0  0  0  0
   16.5950   23.5620   -0.8830 C   0  0  0  0  0  0  0  0  0  0  0  0
   15.3280   23.6380   -1.7220 C   0  0  2  0  0  0  0  0  0  0  0  0
   15.5940   23.0730   -3.1240 C   0  0  0  0  0  0  0  0  0  0  0  0
   15.0270   25.0460   -1.8720 N   0  0  0  0  0  0  0  0  0  0  0  0
   13.8220   25.6080   -1.9520 C   0  0  0  0  0  0  0  0  0  0  0  0
   13.7700   26.8330   -1.9150 O   0  0  0  0  0  0  0  0  0  0  0  0
   12.5260   24.7740   -2.1850 C   0  0  2  0  0  0  0  0  0  0  0  0
   11.8010   25.1970   -3.4770 C   0  0  0  0  0  0  0  0  0  0  0  0
   10.3500   25.4370   -3.0730 C   0  0  1  0  0  0  0  0  0  0  0  0
    9.6060   24.2510   -3.2560 O   0  0  0  0  0  0  0  0  0  0  0  0
   10.4550   25.7730   -1.5880 C   0  0  0  0  0  0  0  0  0  0  0  0
   11.5470   24.9420   -1.1010 N   0  0  0  0  0  0  0  0  0  0  0  0
   11.6970   24.3050    0.0850 C   0  0  0  0  0  0  0  0  0  0  0  0
   12.6200   23.4990    0.2000 O   0  0  0  0  0  0  0  0  0  0  0  0
   10.8160   24.6060    1.3420 C   0  0  1  0  0  0  0  0  0  0  0  0
   10.2930   25.9860    1.4010 N   0  0  0  0  0  0  0  0  0  0  0  0
   10.4070   26.7830    2.4610 C   0  0  0  0  0  0  0  0  0  0  0  0
   10.9080   26.4120    3.5120 O   0  0  0  0  0  0  0  0  0  0  0  0
    9.8570   28.1960    2.3220 C   0  0  0  0  0  0  0  0  0  0  0  0
    8.3210   28.2280    2.2450 C   0  0  0  0  0  0  0  0  0  0  0  0
    7.8110   29.6700    2.1220 C   0  0  0  0  0  0  0  0  0  0  0  0
    6.2810   29.6960    2.0150 C   0  0  0  0  0  0  0  0  0  0  0  0
    5.7740   31.1400    1.9070 C   0  0  0  0  0  0  0  0  0  0  0  0
    4.2460   31.1690    1.7730 C   0  0  0  0  0  0  0  0  0  0  0  0
    3.7400   32.6160    1.6830 C   0  0  0  0  0  0  0  0  0  0  0  0
    2.2100   32.6590    1.5170 C   0  0  0  0  0  0  0  0  0  0  0  0
    1.6270   34.0760    1.4050 C   0  0  0  0  0  0  0  0  0  0  0  0
    2.3480   35.0460    1.6010 O   0  0  0  0  0  0  0  0  0  0  0  0
    0.3160   34.2490    1.1190 N   0  0  0  0  0  0  0  0  0  0  0  0
   -0.2110   35.6180    0.8670 C   0  0  0  0  0  0  0  0  0  0  0  0
   -1.3100   35.8660    1.9260 C   0  0  0  0  0  0  0  0  0  0  0  0
   -2.3830   34.8270    1.7300 N   0  3  0  0  0  0  0  0  0  0  0  0
   -3.4870   35.1200    2.6820 C   0  0  0  0  0  0  0  0  0  0  0  0
   -4.8180   35.3060    1.8820 C   0  0  1  0  0  0  0  0  0  0  0  0
   -5.8780   35.7790    2.9010 C   0  0  0  0  0  0  0  0  0  0  0  0
   -4.6880   36.4590    0.8280 C   0  0  0  0  0  0  0  0  0  0  0  0
   -4.5830   35.9120   -0.6110 C   0  0  0  0  0  0  0  0  0  0  0  0
   -5.8550   35.1140   -0.8250 C   0  0  0  0  0  0  0  0  0  0  0  0
   -6.6080   35.3910   -2.0450 C   0  0  0  0  0  0  0  0  0  0  0  0
   -7.1390   36.6670   -2.2760 C   0  0  0  0  0  0  0  0  0  0  0  0
   -7.8920   36.9270   -3.4140 C   0  0  0  0  0  0  0  0  0  0  0  0
   -8.1160   35.9140   -4.3460 C   0  0  0  0  0  0  0  0  0  0  0  0
   -9.0760   36.2290   -5.7530 Cl  0  0  0  0  0  0  0  0  0  0  0  0
   -7.5680   34.6470   -4.1440 C   0  0  0  0  0  0  0  0  0  0  0  0
   -6.8150   34.3910   -3.0050 C   0  0  0  0  0  0  0  0  0  0  0  0
   -6.2150   34.1930    0.0970 C   0  0  0  0  0  0  0  0  0  0  0  0
   -7.4550   33.3220   -0.0430 C   0  0  0  0  0  0  0  0  0  0  0  0
   -8.4670   33.9790    0.7870 N   0  3  0  0  0  0  0  0  0  0  0  0
   -9.5210   32.9540    1.1190 C   0  0  0  0  0  0  0  0  0  0  0  0
  -10.6260   33.6090    1.9920 C   0  0  0  0  0  0  0  0  0  0  0  0
  -11.1970   34.7160    1.1860 N   0  0  0  0  0  0  0  0  0  0  0  0
  -12.4080   34.5200    0.4960 C   0  0  0  0  0  0  0  0  0  0  0  0
  -13.4970   33.9660    1.1780 C   0  0  0  0  0  0  0  0  0  0  0  0
  -14.7020   33.7580    0.5200 C   0  0  0  0  0  0  0  0  0  0  0  0
  -14.8510   34.0940   -0.8400 C   0  0  0  0  0  0  0  0  0  0  0  0
  -16.1020   33.8640   -1.5720 C   0  0  0  0  0  0  0  0  0  0  0  0
  -16.3790   34.4490   -2.6040 O   0  0  0  0  0  0  0  0  0  0  0  0
  -16.9850   32.9530   -1.0920 N   0  0  0  0  0  0  0  0  0  0  0  0
  -18.0670   32.2580   -2.1280 S   0  0  0  0  0  0  0  0  0  0  0  0
  -19.0280   33.2190   -2.5180 O   0  0  0  0  0  0  0  0  0  0  0  0
  -17.3410   31.6170   -3.1610 O   0  0  0  0  0  0  0  0  0  0  0  0
  -18.8960   31.0010   -1.1260 C   0  0  0  0  0  0  0  0  0  0  0  0
  -18.3870   29.7020   -1.0430 C   0  0  0  0  0  0  0  0  0  0  0  0
  -19.0420   28.7310   -0.2990 C   0  0  0  0  0  0  0  0  0  0  0  0
  -20.2400   29.0380    0.3530 C   0  0  0  0  0  0  0  0  0  0  0  0
  -20.8970   27.9950    1.0170 N   0  0  0  0  0  0  0  0  0  0  0  0
  -21.9470   27.3010    0.2190 C   0  0  2  0  0  0  0  0  0  0  0  0
  -22.6830   26.3620    1.1970 C   0  0  0  0  0  0  0  0  0  0  0  0
  -23.6210   27.2520    2.0190 C   0  0  0  0  0  0  0  0  0  0  0  0
  -24.4030   26.3490    2.8820 N   0  3  0  0  0  0  0  0  0  0  0  0
  -24.9030   27.1660    4.0310 C   0  0  0  0  0  0  0  0  0  0  0  0
  -25.7450   26.2410    4.9420 C   0  0  0  0  0  0  0  0  0  0  0  0
  -26.8230   25.7420    4.1530 O   0  0  0  0  0  0  0  0  0  0  0  0
  -26.4220   24.9470    3.0380 C   0  0  0  0  0  0  0  0  0  0  0  0
  -25.5930   25.8630    2.1060 C   0  0  0  0  0  0  0  0  0  0  0  0
  -21.2830   26.5020   -0.9230 C   0  0  0  0  0  0  0  0  0  0  0  0
  -22.6500   25.8260   -1.9360 S   0  0  0  0  0  0  0  0  0  0  0  0
  -21.9410   24.5580   -2.9140 C   0  0  0  0  0  0  0  0  0  0  0  0
  -22.7890   23.6000   -3.4810 C   0  0  0  0  0  0  0  0  0  0  0  0
  -22.2670   22.5650   -4.2470 C   0  0  0  0  0  0  0  0  0  0  0  0
  -20.8950   22.4760   -4.4630 C   0  0  0  0  0  0  0  0  0  0  0  0
  -20.0460   23.4340   -3.9150 C   0  0  0  0  0  0  0  0  0  0  0  0
  -20.5610   24.4730   -3.1480 C   0  0  0  0  0  0  0  0  0  0  0  0
  -20.7410   30.3490    0.3370 C   0  0  0  0  0  0  0  0  0  0  0  0
  -22.1510   30.8510    1.3480 S   0  0  0  0  0  0  0  0  0  0  0  0
  -23.2450   29.9540    1.1350 O   0  0  0  0  0  0  0  0  0  0  0  0
  -22.4310   32.2180    1.0700 O   0  0  0  0  0  0  0  0  0  0  0  0
  -21.4880   30.6700    3.1170 C   0  0  0  0  0  0  0  0  0  0  0  0
  -20.1620   30.9260    3.2380 F   0  0  0  0  0  0  0  0  0  0  0  0
  -22.0780   31.4860    4.0200 F   0  0  0  0  0  0  0  0  0  0  0  0
  -21.6470   29.4240    3.6500 F   0  0  0  0  0  0  0  0  0  0  0  0
  -20.0710   31.3060   -0.4320 C   0  0  0  0  0  0  0  0  0  0  0  0
  -13.7540   34.6710   -1.5030 C   0  0  0  0  0  0  0  0  0  0  0  0
  -12.5480   34.8850   -0.8500 C   0  0  0  0  0  0  0  0  0  0  0  0
  -10.2240   35.7600    0.7800 C   0  0  0  0  0  0  0  0  0  0  0  0
   -9.1140   35.0570   -0.0470 C   0  0  0  0  0  0  0  0  0  0  0  0
   -5.3000   33.9340    1.2870 C   0  0  0  0  0  0  0  0  0  0  0  0
   -1.7860   33.4910    2.0760 C   0  0  0  0  0  0  0  0  0  0  0  0
   -0.6840   33.1560    1.0330 C   0  0  0  0  0  0  0  0  0  0  0  0
    9.6630   23.5650    1.5640 C   0  0  0  0  0  0  0  0  0  0  0  0
    8.5830   23.5840    0.4650 C   0  0  0  0  0  0  0  0  0  0  0  0
   10.2190   22.1280    1.6380 C   0  0  0  0  0  0  0  0  0  0  0  0
    8.9490   23.8100    2.9120 C   0  0  0  0  0  0  0  0  0  0  0  0
   17.8140   24.0910   -1.3180 C   0  0  0  0  0  0  0  0  0  0  0  0
   18.9470   24.0040   -0.5170 C   0  0  0  0  0  0  0  0  0  0  0  0
   21.0820   24.6670    1.8480 S   0  0  0  0  0  0  0  0  0  0  0  0
   22.0900   23.6970    2.8470 C   0  0  0  0  0  0  0  0  0  0  0  0
   21.7250   22.4520    2.9610 N   0  0  0  0  0  0  0  0  0  0  0  0
   19.1170   20.8150    1.5960 H   0  0  0  0  0  0  0  0  0  0  0  0
   19.7480   20.5260    3.2350 H   0  0  0  0  0  0  0  0  0  0  0  0
   20.7430   20.1240    1.8150 H   0  0  0  0  0  0  0  0  0  0  0  0
   17.5980   22.4150    2.1480 H   0  0  0  0  0  0  0  0  0  0  0  0
   15.5960   22.5620    0.7310 H   0  0  0  0  0  0  0  0  0  0  0  0
   14.5210   23.0770   -1.2510 H   0  0  0  0  0  0  0  0  0  0  0  0
   16.4010   23.6340   -3.5950 H   0  0  0  0  0  0  0  0  0  0  0  0
   14.6910   23.1600   -3.7280 H   0  0  0  0  0  0  0  0  0  0  0  0
   15.8790   22.0240   -3.0450 H   0  0  0  0  0  0  0  0  0  0  0  0
   15.8180   25.6720   -1.9210 H   0  0  0  0  0  0  0  0  0  0  0  0
   12.8670   23.7400   -2.2390 H   0  0  0  0  0  0  0  0  0  0  0  0
   11.8620   24.4060   -4.2240 H   0  0  0  0  0  0  0  0  0  0  0  0
   12.2400   26.1100   -3.8780 H   0  0  0  0  0  0  0  0  0  0  0  0
    9.8550   26.2160   -3.6530 H   0  0  0  0  0  0  0  0  0  0  0  0
   10.0350   23.5580   -2.7480 H   0  0  0  0  0  0  0  0  0  0  0  0
    9.5260   25.5300   -1.0720 H   0  0  0  0  0  0  0  0  0  0  0  0
   10.6830   26.8300   -1.4470 H   0  0  0  0  0  0  0  0  0  0  0  0
   11.5160   24.5010    2.1710 H   0  0  0  0  0  0  0  0  0  0  0  0
    9.8190   26.3480    0.5860 H   0  0  0  0  0  0  0  0  0  0  0  0
   10.1760   28.7810    3.1850 H   0  0  0  0  0  0  0  0  0  0  0  0
   10.2610   28.6400    1.4120 H   0  0  0  0  0  0  0  0  0  0  0  0
    7.9950   27.6580    1.3750 H   0  0  0  0  0  0  0  0  0  0  0  0
    7.9090   27.7790    3.1490 H   0  0  0  0  0  0  0  0  0  0  0  0
    8.1180   30.2350    3.0020 H   0  0  0  0  0  0  0  0  0  0  0  0
    8.2400   30.1270    1.2300 H   0  0  0  0  0  0  0  0  0  0  0  0
    5.9740   29.1410    1.1290 H   0  0  0  0  0  0  0  0  0  0  0  0
    5.8510   29.2300    2.9020 H   0  0  0  0  0  0  0  0  0  0  0  0
    6.2190   31.6110    1.0310 H   0  0  0  0  0  0  0  0  0  0  0  0
    6.0650   31.6900    2.8020 H   0  0  0  0  0  0  0  0  0  0  0  0
    3.8010   30.6870    2.6430 H   0  0  0  0  0  0  0  0  0  0  0  0
    3.9550   30.6310    0.8710 H   0  0  0  0  0  0  0  0  0  0  0  0
    4.2050   33.1030    0.8260 H   0  0  0  0  0  0  0  0  0  0  0  0
    4.0140   33.1460    2.5950 H   0  0  0  0  0  0  0  0  0  0  0  0
    1.7590   32.1710    2.3810 H   0  0  0  0  0  0  0  0  0  0  0  0
    1.9490   32.1100    0.6120 H   0  0  0  0  0  0  0  0  0  0  0  0
    0.5860   36.3540    0.9720 H   0  0  0  0  0  0  0  0  0  0  0  0
   -0.6330   35.6800   -0.1360 H   0  0  0  0  0  0  0  0  0  0  0  0
   -1.7310   36.8630    1.7960 H   0  0  0  0  0  0  0  0  0  0  0  0
   -0.8870   35.7780    2.9270 H   0  0  0  0  0  0  0  0  0  0  0  0
   -2.7310   34.8290    0.7820 H   0  0  0  0  0  0  0  0  0  0  0  0
   -3.5950   34.2910    3.3820 H   0  0  0  0  0  0  0  0  0  0  0  0
   -3.2610   36.0330    3.2320 H   0  0  0  0  0  0  0  0  0  0  0  0
   -6.8310   35.9250    2.3930 H   0  0  0  0  0  0  0  0  0  0  0  0
   -5.5570   36.7200    3.3490 H   0  0  0  0  0  0  0  0  0  0  0  0
   -5.9940   35.0260    3.6810 H   0  0  0  0  0  0  0  0  0  0  0  0
   -5.5660   37.1010    0.8980 H   0  0  0  0  0  0  0  0  0  0  0  0
   -3.7930   37.0410    1.0500 H   0  0  0  0  0  0  0  0  0  0  0  0
   -3.7070   35.2710   -0.7140 H   0  0  0  0  0  0  0  0  0  0  0  0
   -4.5200   36.7310   -1.3280 H   0  0  0  0  0  0  0  0  0  0  0  0
   -6.9610   37.4570   -1.5610 H   0  0  0  0  0  0  0  0  0  0  0  0
   -8.3030   37.9120   -3.5770 H   0  0  0  0  0  0  0  0  0  0  0  0
   -7.7290   33.8660   -4.8720 H   0  0  0  0  0  0  0  0  0  0  0  0
   -6.3850   33.4110   -2.8580 H   0  0  0  0  0  0  0  0  0  0  0  0
   -7.2580   32.3120    0.3180 H   0  0  0  0  0  0  0  0  0  0  0  0
   -7.7790   33.2790   -1.0830 H   0  0  0  0  0  0  0  0  0  0  0  0
   -8.0590   34.3660    1.6260 H   0  0  0  0  0  0  0  0  0  0  0  0
   -9.9630   32.5760    0.1970 H   0  0  0  0  0  0  0  0  0  0  0  0
   -9.0660   32.1300    1.6680 H   0  0  0  0  0  0  0  0  0  0  0  0
  -10.1960   33.9980    2.9150 H   0  0  0  0  0  0  0  0  0  0  0  0
  -11.3990   32.8790    2.2310 H   0  0  0  0  0  0  0  0  0  0  0  0
  -13.4000   33.6990    2.2200 H   0  0  0  0  0  0  0  0  0  0  0  0
  -15.5360   33.3330    1.0580 H   0  0  0  0  0  0  0  0  0  0  0  0
  -16.9810   32.7030   -0.1130 H   0  0  0  0  0  0  0  0  0  0  0  0
  -17.4740   29.4510   -1.5630 H   0  0  0  0  0  0  0  0  0  0  0  0
  -18.6260   27.7370   -0.2240 H   0  0  0  0  0  0  0  0  0  0  0  0
  -20.6760   27.7320    1.9670 H   0  0  0  0  0  0  0  0  0  0  0  0
  -22.6450   28.0030   -0.2370 H   0  0  0  0  0  0  0  0  0  0  0  0
  -23.2560   25.6160    0.6460 H   0  0  0  0  0  0  0  0  0  0  0  0
  -21.9680   25.8610    1.8500 H   0  0  0  0  0  0  0  0  0  0  0  0
  -24.2850   27.8110    1.3590 H   0  0  0  0  0  0  0  0  0  0  0  0
  -23.0430   27.9480    2.6270 H   0  0  0  0  0  0  0  0  0  0  0  0
  -23.8450   25.5670    3.1950 H   0  0  0  0  0  0  0  0  0  0  0  0
  -24.0610   27.5710    4.5920 H   0  0  0  0  0  0  0  0  0  0  0  0
  -25.5210   27.9850    3.6620 H   0  0  0  0  0  0  0  0  0  0  0  0
  -26.1330   26.8050    5.7910 H   0  0  0  0  0  0  0  0  0  0  0  0
  -25.1330   25.4150    5.3040 H   0  0  0  0  0  0  0  0  0  0  0  0
  -25.8140   24.1080    3.3760 H   0  0  0  0  0  0  0  0  0  0  0  0
  -27.2990   24.5720    2.5110 H   0  0  0  0  0  0  0  0  0  0  0  0
  -26.1980   26.7110    1.7850 H   0  0  0  0  0  0  0  0  0  0  0  0
  -25.2620   25.3010    1.2320 H   0  0  0  0  0  0  0  0  0  0  0  0
  -20.6780   25.6920   -0.5150 H   0  0  0  0  0  0  0  0  0  0  0  0
  -20.6540   27.1570   -1.5260 H   0  0  0  0  0  0  0  0  0  0  0  0
  -23.8550   23.6660   -3.3220 H   0  0  0  0  0  0  0  0  0  0  0  0
  -22.9280   21.8270   -4.6760 H   0  0  0  0  0  0  0  0  0  0  0  0
  -20.4900   21.6670   -5.0530 H   0  0  0  0  0  0  0  0  0  0  0  0
  -18.9820   23.3700   -4.0870 H   0  0  0  0  0  0  0  0  0  0  0  0
  -19.8970   25.2160   -2.7320 H   0  0  0  0  0  0  0  0  0  0  0  0
  -20.4720   32.3070   -0.4910 H   0  0  0  0  0  0  0  0  0  0  0  0
  -13.8510   34.9530   -2.5410 H   0  0  0  0  0  0  0  0  0  0  0  0
  -11.7190   35.3320   -1.3780 H   0  0  0  0  0  0  0  0  0  0  0  0
  -10.7200   36.5170    0.1720 H   0  0  0  0  0  0  0  0  0  0  0  0
   -9.7910   36.2300    1.6630 H   0  0  0  0  0  0  0  0  0  0  0  0
   -8.3620   35.7890   -0.3400 H   0  0  0  0  0  0  0  0  0  0  0  0
   -9.5540   34.6110   -0.9390 H   0  0  0  0  0  0  0  0  0  0  0  0
   -5.8440   33.3780    2.0500 H   0  0  0  0  0  0  0  0  0  0  0  0
   -4.4360   33.3550    0.9620 H   0  0  0  0  0  0  0  0  0  0  0  0
   -1.3480   33.5320    3.0730 H   0  0  0  0  0  0  0  0  0  0  0  0
   -2.5610   32.7250    2.0510 H   0  0  0  0  0  0  0  0  0  0  0  0
   -1.1120   33.1140    0.0320 H   0  0  0  0  0  0  0  0  0  0  0  0
   -0.2190   32.1990    1.2700 H   0  0  0  0  0  0  0  0  0  0  0  0
    7.8220   22.8370    0.6900 H   0  0  0  0  0  0  0  0  0  0  0  0
    9.0410   23.3570   -0.4980 H   0  0  0  0  0  0  0  0  0  0  0  0
    8.1220   24.5710    0.4250 H   0  0  0  0  0  0  0  0  0  0  0  0
    9.3980   21.4280    1.7920 H   0  0  0  0  0  0  0  0  0  0  0  0
   10.9210   22.0520    2.4680 H   0  0  0  0  0  0  0  0  0  0  0  0
   10.7310   21.8880    0.7060 H   0  0  0  0  0  0  0  0  0  0  0  0
    8.1540   23.0750    3.0410 H   0  0  0  0  0  0  0  0  0  0  0  0
    8.5210   24.8130    2.9200 H   0  0  0  0  0  0  0  0  0  0  0  0
    9.6670   23.7150    3.7260 H   0  0  0  0  0  0  0  0  0  0  0  0
   17.8760   24.5710   -2.2840 H   0  0  0  0  0  0  0  0  0  0  0  0
   19.8810   24.4160   -0.8690 H   0  0  0  0  0  0  0  0  0  0  0  0
   22.9640   24.0920    3.3450 H   0  0  0  0  0  0  0  0  0  0  0  0
  1  2  1  0  0  0  0
  1115  1  0  0  0  0
  1116  1  0  0  0  0
  1117  1  0  0  0  0
  2  3  2  0  0  0  0
  2114  1  0  0  0  0
  3  4  1  0  0  0  0
  3112  1  0  0  0  0
  4  5  1  0  0  0  0
  4111  2  0  0  0  0
  5  6  2  0  0  0  0
  5118  1  0  0  0  0
  6  7  1  0  0  0  0
  6119  1  0  0  0  0
  7  8  1  0  0  0  0
  7110  2  0  0  0  0
  8  9  1  0  0  0  0
  8 10  1  0  0  0  0
  8120  1  0  0  0  0
  9121  1  0  0  0  0
  9122  1  0  0  0  0
  9123  1  0  0  0  0
 10 11  1  0  0  0  0
 10124  1  0  0  0  0
 11 12  2  0  0  0  0
 11 13  1  0  0  0  0
 13 14  1  0  0  0  0
 13 18  1  0  0  0  0
 13125  1  0  0  0  0
 14 15  1  0  0  0  0
 14126  1  0  0  0  0
 14127  1  0  0  0  0
 15 16  1  0  0  0  0
 15 17  1  0  0  0  0
 15128  1  0  0  0  0
 16129  1  0  0  0  0
 17 18  1  0  0  0  0
 17130  1  0  0  0  0
 17131  1  0  0  0  0
 18 19  1  0  0  0  0
 19 20  2  0  0  0  0
 19 21  1  0  0  0  0
 21 22  1  0  0  0  0
 21106  1  0  0  0  0
 21132  1  0  0  0  0
 22 23  1  0  0  0  0
 22133  1  0  0  0  0
 23 24  2  0  0  0  0
 23 25  1  0  0  0  0
 25 26  1  0  0  0  0
 25134  1  0  0  0  0
 25135  1  0  0  0  0
 26 27  1  0  0  0  0
 26136  1  0  0  0  0
 26137  1  0  0  0  0
 27 28  1  0  0  0  0
 27138  1  0  0  0  0
 27139  1  0  0  0  0
 28 29  1  0  0  0  0
 28140  1  0  0  0  0
 28141  1  0  0  0  0
 29 30  1  0  0  0  0
 29142  1  0  0  0  0
 29143  1  0  0  0  0
 30 31  1  0  0  0  0
 30144  1  0  0  0  0
 30145  1  0  0  0  0
 31 32  1  0  0  0  0
 31146  1  0  0  0  0
 31147  1  0  0  0  0
 32 33  1  0  0  0  0
 32148  1  0  0  0  0
 32149  1  0  0  0  0
 33 34  2  0  0  0  0
 33 35  1  0  0  0  0
 35 36  1  0  0  0  0
 35105  1  0  0  0  0
 36 37  1  0  0  0  0
 36150  1  0  0  0  0
 36151  1  0  0  0  0
 37 38  1  0  0  0  0
 37152  1  0  0  0  0
 37153  1  0  0  0  0
 38 39  1  0  0  0  0
 38104  1  0  0  0  0
 38154  1  0  0  0  0
 39 40  1  0  0  0  0
 39155  1  0  0  0  0
 39156  1  0  0  0  0
 40 41  1  0  0  0  0
 40 42  1  0  0  0  0
 40103  1  0  0  0  0
 41157  1  0  0  0  0
 41158  1  0  0  0  0
 41159  1  0  0  0  0
 42 43  1  0  0  0  0
 42160  1  0  0  0  0
 42161  1  0  0  0  0
 43 44  1  0  0  0  0
 43162  1  0  0  0  0
 43163  1  0  0  0  0
 44 45  1  0  0  0  0
 44 52  2  0  0  0  0
 45 46  1  0  0  0  0
 45 51  2  0  0  0  0
 46 47  2  0  0  0  0
 46164  1  0  0  0  0
 47 48  1  0  0  0  0
 47165  1  0  0  0  0
 48 49  1  0  0  0  0
 48 50  2  0  0  0  0
 50 51  1  0  0  0  0
 50166  1  0  0  0  0
 51167  1  0  0  0  0
 52 53  1  0  0  0  0
 52103  1  0  0  0  0
 53 54  1  0  0  0  0
 53168  1  0  0  0  0
 53169  1  0  0  0  0
 54 55  1  0  0  0  0
 54102  1  0  0  0  0
 54170  1  0  0  0  0
 55 56  1  0  0  0  0
 55171  1  0  0  0  0
 55172  1  0  0  0  0
 56 57  1  0  0  0  0
 56173  1  0  0  0  0
 56174  1  0  0  0  0
 57 58  1  0  0  0  0
 57101  1  0  0  0  0
 58 59  1  0  0  0  0
 58100  2  0  0  0  0
 59 60  2  0  0  0  0
 59175  1  0  0  0  0
 60 61  1  0  0  0  0
 60176  1  0  0  0  0
 61 62  1  0  0  0  0
 61 99  2  0  0  0  0
 62 63  2  0  0  0  0
 62 64  1  0  0  0  0
 64 65  1  0  0  0  0
 64177  1  0  0  0  0
 65 66  2  0  0  0  0
 65 67  2  0  0  0  0
 65 68  1  0  0  0  0
 68 69  1  0  0  0  0
 68 98  2  0  0  0  0
 69 70  2  0  0  0  0
 69178  1  0  0  0  0
 70 71  1  0  0  0  0
 70179  1  0  0  0  0
 71 72  1  0  0  0  0
 71 90  2  0  0  0  0
 72 73  1  0  0  0  0
 72180  1  0  0  0  0
 73 74  1  0  0  0  0
 73 82  1  0  0  0  0
 73181  1  0  0  0  0
 74 75  1  0  0  0  0
 74182  1  0  0  0  0
 74183  1  0  0  0  0
 75 76  1  0  0  0  0
 75184  1  0  0  0  0
 75185  1  0  0  0  0
 76 77  1  0  0  0  0
 76 81  1  0  0  0  0
 76186  1  0  0  0  0
 77 78  1  0  0  0  0
 77187  1  0  0  0  0
 77188  1  0  0  0  0
 78 79  1  0  0  0  0
 78189  1  0  0  0  0
 78190  1  0  0  0  0
 79 80  1  0  0  0  0
 80 81  1  0  0  0  0
 80191  1  0  0  0  0
 80192  1  0  0  0  0
 81193  1  0  0  0  0
 81194  1  0  0  0  0
 82 83  1  0  0  0  0
 82195  1  0  0  0  0
 82196  1  0  0  0  0
 83 84  1  0  0  0  0
 84 85  1  0  0  0  0
 84 89  2  0  0  0  0
 85 86  2  0  0  0  0
 85197  1  0  0  0  0
 86 87  1  0  0  0  0
 86198  1  0  0  0  0
 87 88  2  0  0  0  0
 87199  1  0  0  0  0
 88 89  1  0  0  0  0
 88200  1  0  0  0  0
 89201  1  0  0  0  0
 90 91  1  0  0  0  0
 90 98  1  0  0  0  0
 91 92  2  0  0  0  0
 91 93  2  0  0  0  0
 91 94  1  0  0  0  0
 94 95  1  0  0  0  0
 94 96  1  0  0  0  0
 94 97  1  0  0  0  0
 98202  1  0  0  0  0
 99100  1  0  0  0  0
 99203  1  0  0  0  0
100204  1  0  0  0  0
101102  1  0  0  0  0
101205  1  0  0  0  0
101206  1  0  0  0  0
102207  1  0  0  0  0
102208  1  0  0  0  0
103209  1  0  0  0  0
103210  1  0  0  0  0
104105  1  0  0  0  0
104211  1  0  0  0  0
104212  1  0  0  0  0
105213  1  0  0  0  0
105214  1  0  0  0  0
106107  1  0  0  0  0
106108  1  0  0  0  0
106109  1  0  0  0  0
107215  1  0  0  0  0
107216  1  0  0  0  0
107217  1  0  0  0  0
108218  1  0  0  0  0
108219  1  0  0  0  0
108220  1  0  0  0  0
109221  1  0  0  0  0
109222  1  0  0  0  0
109223  1  0  0  0  0
110111  1  0  0  0  0
110224  1  0  0  0  0
111225  1  0  0  0  0
112113  1  0  0  0  0
113114  2  0  0  0  0
113226  1  0  0  0  0
M  CHG  1  38   1
M  CHG  1  54   1
M  CHG  1  76   1
M  END
>  <Compound ID>
3218

>  <Uniprot>
P10415

>  <Target>
BCL2

>  <E3 ligase>
VHL

>  <Name>
PPC10

>  <Dmax (%)>
69

>  <Assay (DC50/Dmax)>
Degradation of BCL2 in 293T cells after 16 h treatment

>  <Article DOI>
10.1038/s41467-021-27210-x

>  <Molecular Weight>
1669.577

>  <Exact Mass>
1667.6831

>  <XLogP3>
13.4

>  <Heavy Atom Count>
114

>  <Ring Count>
11

>  <Hydrogen Bond Acceptor Count>
19

>  <Hydrogen Bond Donor Count>
5

>  <Rotatable Bond Count>
33

>  <Topological Polar Surface Area>
263.54001

>  <Molecular Formula>
C84H109ClF3N11O11S4

>  <InChI>
InChI=1S/C84H109ClF3N11O11S4/c1-58(60-20-22-62(23-21-60)77-59(2)89-57-112-77)90-80(104)73-50-68(100)54-99(73)81(105)78(82(3,4)5)92-75(101)18-14-9-7-8-10-15-19-76(102)98-44-40-96(41-45-98)56-83(6)36-34-71(61-24-28-65(85)29-25-61)64(52-83)53-95-38-42-97(43-39-95)67-30-26-63(27-31-67)79(103)93-114(108,109)70-32-33-72(74(51-70)113(106,107)84(86,87)88)91-66(35-37-94-46-48-110-49-47-94)55-111-69-16-12-11-13-17-69/h11-13,16-17,20-33,51,57-58,66,68,73,78,91,100H,7-10,14-15,18-19,34-50,52-56H2,1-6H3,(H,90,104)(H,92,101)(H,93,103)/t58-,66+,68+,73-,78+,83?/m0/s1

>  <InChI Key>
CGIQKSDNJNCLMP-PVVVILJQSA-N

>  <DC50 (nM)>
354.79999

$$$$
3219
  MOE2018           3D

229239  0  0  1  0  0  0  0  0999 V2000
   30.6750   29.3890    5.0830 C   0  0  0  0  0  0  0  0  0  0  0  0
   29.4960   30.2420    4.6780 C   0  0  0  0  0  0  0  0  0  0  0  0
   28.6280   29.9510    3.6550 C   0  0  0  0  0  0  0  0  0  0  0  0
   28.6070   28.8000    2.7610 C   0  0  0  0  0  0  0  0  0  0  0  0
   28.6640   27.4950    3.2620 C   0  0  0  0  0  0  0  0  0  0  0  0
   28.6490   26.4000    2.4050 C   0  0  0  0  0  0  0  0  0  0  0  0
   28.5720   26.5800    1.0240 C   0  0  0  0  0  0  0  0  0  0  0  0
   28.5690   25.3610    0.1120 C   0  0  2  0  0  0  0  0  0  0  0  0
   29.8470   25.3850   -0.7340 C   0  0  0  0  0  0  0  0  0  0  0  0
   27.4570   25.5020   -0.8100 N   0  0  0  0  0  0  0  0  0  0  0  0
   26.6130   24.5690   -1.2440 C   0  0  0  0  0  0  0  0  0  0  0  0
   25.8100   24.8990   -2.1060 O   0  0  0  0  0  0  0  0  0  0  0  0
   26.6650   23.1060   -0.7080 C   0  0  2  0  0  0  0  0  0  0  0  0
   27.7710   22.3030   -1.4110 C   0  0  0  0  0  0  0  0  0  0  0  0
   27.2160   20.8870   -1.5220 C   0  0  1  0  0  0  0  0  0  0  0  0
   27.4620   20.2050   -0.3090 O   0  0  0  0  0  0  0  0  0  0  0  0
   25.7220   21.1430   -1.7170 C   0  0  0  0  0  0  0  0  0  0  0  0
   25.4380   22.3190   -0.9070 N   0  0  0  0  0  0  0  0  0  0  0  0
   24.1940   22.6160   -0.4770 C   0  0  0  0  0  0  0  0  0  0  0  0
   23.2440   21.9340   -0.8640 O   0  0  0  0  0  0  0  0  0  0  0  0
   23.9440   23.7650    0.5480 C   0  0  1  0  0  0  0  0  0  0  0  0
   22.8330   24.6100    0.0900 N   0  0  0  0  0  0  0  0  0  0  0  0
   22.8400   25.9380    0.1340 C   0  0  0  0  0  0  0  0  0  0  0  0
   23.7390   26.5710    0.6720 O   0  0  0  0  0  0  0  0  0  0  0  0
   21.6720   26.6650   -0.5220 C   0  0  0  0  0  0  0  0  0  0  0  0
   20.3050   26.2890    0.0770 C   0  0  0  0  0  0  0  0  0  0  0  0
   19.2000   27.1750   -0.5130 C   0  0  0  0  0  0  0  0  0  0  0  0
   17.8090   26.6950   -0.0750 C   0  0  0  0  0  0  0  0  0  0  0  0
   16.7320   27.6590   -0.5900 C   0  0  0  0  0  0  0  0  0  0  0  0
   15.3230   27.1020   -0.3480 C   0  0  0  0  0  0  0  0  0  0  0  0
   14.2690   28.1220   -0.8010 C   0  0  0  0  0  0  0  0  0  0  0  0
   12.8610   27.5100   -0.7820 C   0  0  0  0  0  0  0  0  0  0  0  0
   11.8110   28.5580   -1.1980 C   0  0  0  0  0  0  0  0  0  0  0  0
   10.4040   27.9900   -1.4390 C   0  0  0  0  0  0  0  0  0  0  0  0
   10.1620   26.8250   -1.1550 O   0  0  0  0  0  0  0  0  0  0  0  0
    9.4450   28.7750   -1.9820 N   0  0  0  0  0  0  0  0  0  0  0  0
    9.6050   30.2330   -2.2250 C   0  0  0  0  0  0  0  0  0  0  0  0
    8.3360   30.9290   -1.6660 C   0  0  0  0  0  0  0  0  0  0  0  0
    7.1490   30.3540   -2.3700 N   0  3  0  0  0  0  0  0  0  0  0  0
    5.8730   31.1320   -2.1330 C   0  0  0  0  0  0  0  0  0  0  0  0
    5.4720   31.5560   -0.6650 C   0  0  1  0  0  0  0  0  0  0  0  0
    5.5350   30.3870    0.3450 C   0  0  0  0  0  0  0  0  0  0  0  0
    6.4110   32.6970   -0.1450 C   0  0  0  0  0  0  0  0  0  0  0  0
    5.6320   33.7450    0.6720 C   0  0  0  0  0  0  0  0  0  0  0  0
    4.6580   34.3330   -0.3280 C   0  0  0  0  0  0  0  0  0  0  0  0
    4.6410   35.7850   -0.4640 C   0  0  0  0  0  0  0  0  0  0  0  0
    4.3460   36.5930    0.6430 C   0  0  0  0  0  0  0  0  0  0  0  0
    4.2950   37.9760    0.5190 C   0  0  0  0  0  0  0  0  0  0  0  0
    4.5510   38.5730   -0.7150 C   0  0  0  0  0  0  0  0  0  0  0  0
    4.4720   40.2960   -0.8760 Cl  0  0  0  0  0  0  0  0  0  0  0  0
    4.8720   37.7830   -1.8200 C   0  0  0  0  0  0  0  0  0  0  0  0
    4.9220   36.4010   -1.6920 C   0  0  0  0  0  0  0  0  0  0  0  0
    3.8650   33.4920   -1.0270 C   0  0  0  0  0  0  0  0  0  0  0  0
    2.8280   33.9890   -2.0220 C   0  0  0  0  0  0  0  0  0  0  0  0
    1.5490   33.8860   -1.3190 N   0  3  0  0  0  0  0  0  0  0  0  0
    0.4600   34.0170   -2.3490 C   0  0  0  0  0  0  0  0  0  0  0  0
   -0.9210   33.9310   -1.6510 C   0  0  0  0  0  0  0  0  0  0  0  0
   -0.9680   35.0470   -0.6810 N   0  0  0  0  0  0  0  0  0  0  0  0
   -2.2570   35.4680   -0.3400 C   0  0  0  0  0  0  0  0  0  0  0  0
   -2.7820   35.2740    0.9440 C   0  0  0  0  0  0  0  0  0  0  0  0
   -4.0790   35.6840    1.2240 C   0  0  0  0  0  0  0  0  0  0  0  0
   -4.8750   36.3010    0.2420 C   0  0  0  0  0  0  0  0  0  0  0  0
   -6.2430   36.7200    0.5630 C   0  0  0  0  0  0  0  0  0  0  0  0
   -6.8180   36.5090    1.6190 O   0  0  0  0  0  0  0  0  0  0  0  0
   -7.0060   37.3880   -0.3100 N   0  0  0  0  0  0  0  0  0  0  0  0
   -7.8880   36.3740   -1.2610 S   0  0  0  0  0  0  0  0  0  0  0  0
   -8.1390   37.0450   -2.4790 O   0  0  0  0  0  0  0  0  0  0  0  0
   -7.2070   35.1360   -1.3650 O   0  0  0  0  0  0  0  0  0  0  0  0
   -9.4490   36.1170   -0.3820 C   0  0  0  0  0  0  0  0  0  0  0  0
   -9.5600   35.1250    0.5950 C   0  0  0  0  0  0  0  0  0  0  0  0
  -10.7670   34.8900    1.2360 C   0  0  0  0  0  0  0  0  0  0  0  0
  -11.8980   35.6330    0.8900 C   0  0  0  0  0  0  0  0  0  0  0  0
  -13.1060   35.2800    1.5030 N   0  0  0  0  0  0  0  0  0  0  0  0
  -13.9620   34.3490    0.7150 C   0  0  2  0  0  0  0  0  0  0  0  0
  -15.3100   34.2650    1.4600 C   0  0  0  0  0  0  0  0  0  0  0  0
  -16.0310   35.5900    1.1930 C   0  0  0  0  0  0  0  0  0  0  0  0
  -17.3570   35.4700    1.8230 N   0  3  0  0  0  0  0  0  0  0  0  0
  -17.8450   36.8590    2.0880 C   0  0  0  0  0  0  0  0  0  0  0  0
  -19.2440   36.7510    2.7400 C   0  0  0  0  0  0  0  0  0  0  0  0
  -20.0880   36.0750    1.8090 O   0  0  0  0  0  0  0  0  0  0  0  0
  -19.6860   34.7420    1.5020 C   0  0  0  0  0  0  0  0  0  0  0  0
  -18.2920   34.8310    0.8380 C   0  0  0  0  0  0  0  0  0  0  0  0
  -13.2870   32.9630    0.6340 C   0  0  0  0  0  0  0  0  0  0  0  0
  -14.3230   31.9610   -0.4950 S   0  0  0  0  0  0  0  0  0  0  0  0
  -13.7140   30.3200   -0.4300 C   0  0  0  0  0  0  0  0  0  0  0  0
  -14.4570   29.3130   -1.0570 C   0  0  0  0  0  0  0  0  0  0  0  0
  -14.0230   27.9930   -1.0240 C   0  0  0  0  0  0  0  0  0  0  0  0
  -12.8410   27.6620   -0.3690 C   0  0  0  0  0  0  0  0  0  0  0  0
  -12.0910   28.6570    0.2510 C   0  0  0  0  0  0  0  0  0  0  0  0
  -12.5190   29.9800    0.2210 C   0  0  0  0  0  0  0  0  0  0  0  0
  -11.8010   36.6880   -0.0320 C   0  0  0  0  0  0  0  0  0  0  0  0
  -13.1660   37.8340   -0.3310 S   0  0  0  0  0  0  0  0  0  0  0  0
  -12.7630   38.7400   -1.3520 O   0  0  0  0  0  0  0  0  0  0  0  0
  -14.3640   37.1030   -0.6100 O   0  0  0  0  0  0  0  0  0  0  0  0
  -13.3290   38.7500    1.3240 C   0  0  0  0  0  0  0  0  0  0  0  0
  -13.8900   39.9760    1.2280 F   0  0  0  0  0  0  0  0  0  0  0  0
  -14.1040   38.1070    2.2460 F   0  0  0  0  0  0  0  0  0  0  0  0
  -12.1500   38.9590    1.9560 F   0  0  0  0  0  0  0  0  0  0  0  0
  -10.5770   36.8900   -0.6800 C   0  0  0  0  0  0  0  0  0  0  0  0
   -4.3210   36.5020   -1.0360 C   0  0  0  0  0  0  0  0  0  0  0  0
   -3.0290   36.0890   -1.3250 C   0  0  0  0  0  0  0  0  0  0  0  0
    0.0760   34.9940    0.3670 C   0  0  0  0  0  0  0  0  0  0  0  0
    1.4370   35.0610   -0.3750 C   0  0  0  0  0  0  0  0  0  0  0  0
    3.9580   31.9970   -0.7410 C   0  0  0  0  0  0  0  0  0  0  0  0
    7.0000   28.9190   -1.9490 C   0  0  0  0  0  0  0  0  0  0  0  0
    8.2050   28.1380   -2.5190 C   0  0  0  0  0  0  0  0  0  0  0  0
   23.7030   23.2420    2.0070 C   0  0  0  0  0  0  0  0  0  0  0  0
   23.6460   24.4120    3.0120 C   0  0  0  0  0  0  0  0  0  0  0  0
   24.8620   22.3370    2.4710 C   0  0  0  0  0  0  0  0  0  0  0  0
   22.3910   22.4440    2.1640 C   0  0  0  0  0  0  0  0  0  0  0  0
   28.5070   27.8820    0.5180 C   0  0  0  0  0  0  0  0  0  0  0  0
   28.5210   28.9760    1.3770 C   0  0  0  0  0  0  0  0  0  0  0  0
   27.4540   31.1940    3.5250 S   0  0  0  0  0  0  0  0  0  0  0  0
   28.1950   31.9920    4.8540 C   0  0  0  0  0  0  0  0  0  0  0  0
   29.2380   31.3920    5.3520 N   0  0  0  0  0  0  0  0  0  0  0  0
   30.7280   28.5120    4.4370 H   0  0  0  0  0  0  0  0  0  0  0  0
   30.5550   29.0710    6.1190 H   0  0  0  0  0  0  0  0  0  0  0  0
   31.5930   29.9680    4.9850 H   0  0  0  0  0  0  0  0  0  0  0  0
   28.7200   27.3360    4.3290 H   0  0  0  0  0  0  0  0  0  0  0  0
   28.6970   25.4010    2.8120 H   0  0  0  0  0  0  0  0  0  0  0  0
   28.4990   24.4460    0.7010 H   0  0  0  0  0  0  0  0  0  0  0  0
   29.8850   26.3100   -1.3090 H   0  0  0  0  0  0  0  0  0  0  0  0
   29.8480   24.5340   -1.4150 H   0  0  0  0  0  0  0  0  0  0  0  0
   30.7170   25.3280   -0.0800 H   0  0  0  0  0  0  0  0  0  0  0  0
   27.3030   26.4330   -1.1710 H   0  0  0  0  0  0  0  0  0  0  0  0
   26.8340   23.2420    0.3600 H   0  0  0  0  0  0  0  0  0  0  0  0
   28.6860   22.3110   -0.8190 H   0  0  0  0  0  0  0  0  0  0  0  0
   27.9740   22.7140   -2.4000 H   0  0  0  0  0  0  0  0  0  0  0  0
   27.6510   20.2800   -2.3170 H   0  0  0  0  0  0  0  0  0  0  0  0
   27.0840   20.7290    0.4010 H   0  0  0  0  0  0  0  0  0  0  0  0
   25.1380   20.2890   -1.3730 H   0  0  0  0  0  0  0  0  0  0  0  0
   25.4990   21.3360   -2.7660 H   0  0  0  0  0  0  0  0  0  0  0  0
   24.8530   24.3650    0.5950 H   0  0  0  0  0  0  0  0  0  0  0  0
   22.0130   24.1530   -0.2820 H   0  0  0  0  0  0  0  0  0  0  0  0
   21.8200   27.7380   -0.3990 H   0  0  0  0  0  0  0  0  0  0  0  0
   21.6640   26.4180   -1.5840 H   0  0  0  0  0  0  0  0  0  0  0  0
   20.0880   25.2450   -0.1500 H   0  0  0  0  0  0  0  0  0  0  0  0
   20.3370   26.4260    1.1580 H   0  0  0  0  0  0  0  0  0  0  0  0
   19.3460   28.2000   -0.1720 H   0  0  0  0  0  0  0  0  0  0  0  0
   19.2610   27.1420   -1.6010 H   0  0  0  0  0  0  0  0  0  0  0  0
   17.6260   25.7000   -0.4810 H   0  0  0  0  0  0  0  0  0  0  0  0
   17.7670   26.6560    1.0140 H   0  0  0  0  0  0  0  0  0  0  0  0
   16.8740   27.8120   -1.6600 H   0  0  0  0  0  0  0  0  0  0  0  0
   16.8310   28.6120   -0.0710 H   0  0  0  0  0  0  0  0  0  0  0  0
   15.1940   26.8970    0.7150 H   0  0  0  0  0  0  0  0  0  0  0  0
   15.1980   26.1790   -0.9140 H   0  0  0  0  0  0  0  0  0  0  0  0
   14.5020   28.4470   -1.8150 H   0  0  0  0  0  0  0  0  0  0  0  0
   14.2930   28.9800   -0.1290 H   0  0  0  0  0  0  0  0  0  0  0  0
   12.6370   27.1580    0.2250 H   0  0  0  0  0  0  0  0  0  0  0  0
   12.8250   26.6710   -1.4770 H   0  0  0  0  0  0  0  0  0  0  0  0
   12.1490   29.0320   -2.1200 H   0  0  0  0  0  0  0  0  0  0  0  0
   11.7450   29.3060   -0.4080 H   0  0  0  0  0  0  0  0  0  0  0  0
   10.4920   30.6030   -1.7110 H   0  0  0  0  0  0  0  0  0  0  0  0
    9.6980   30.4260   -3.2940 H   0  0  0  0  0  0  0  0  0  0  0  0
    8.3910   32.0020   -1.8490 H   0  0  0  0  0  0  0  0  0  0  0  0
    8.2550   30.7470   -0.5940 H   0  0  0  0  0  0  0  0  0  0  0  0
    7.3120   30.4150   -3.3650 H   0  0  0  0  0  0  0  0  0  0  0  0
    5.9500   32.0500   -2.7160 H   0  0  0  0  0  0  0  0  0  0  0  0
    5.0560   30.5230   -2.5200 H   0  0  0  0  0  0  0  0  0  0  0  0
    5.2480   30.7450    1.3340 H   0  0  0  0  0  0  0  0  0  0  0  0
    6.5510   29.9930    0.3820 H   0  0  0  0  0  0  0  0  0  0  0  0
    4.8510   29.5990    0.0310 H   0  0  0  0  0  0  0  0  0  0  0  0
    7.1830   32.2590    0.4870 H   0  0  0  0  0  0  0  0  0  0  0  0
    6.8760   33.1890   -0.9990 H   0  0  0  0  0  0  0  0  0  0  0  0
    6.3020   34.5130    1.0580 H   0  0  0  0  0  0  0  0  0  0  0  0
    5.1020   33.2750    1.5000 H   0  0  0  0  0  0  0  0  0  0  0  0
    4.1560   36.1350    1.6030 H   0  0  0  0  0  0  0  0  0  0  0  0
    4.0570   38.5880    1.3770 H   0  0  0  0  0  0  0  0  0  0  0  0
    5.0810   38.2460   -2.7730 H   0  0  0  0  0  0  0  0  0  0  0  0
    5.1800   35.7940   -2.5470 H   0  0  0  0  0  0  0  0  0  0  0  0
    2.8250   33.3650   -2.9160 H   0  0  0  0  0  0  0  0  0  0  0  0
    3.0300   35.0230   -2.3010 H   0  0  0  0  0  0  0  0  0  0  0  0
    1.4780   33.0140   -0.8150 H   0  0  0  0  0  0  0  0  0  0  0  0
    0.5520   34.9780   -2.8560 H   0  0  0  0  0  0  0  0  0  0  0  0
    0.5500   33.2120   -3.0780 H   0  0  0  0  0  0  0  0  0  0  0  0
   -1.0230   32.9770   -1.1340 H   0  0  0  0  0  0  0  0  0  0  0  0
   -1.7210   34.0340   -2.3840 H   0  0  0  0  0  0  0  0  0  0  0  0
   -2.1820   34.8080    1.7120 H   0  0  0  0  0  0  0  0  0  0  0  0
   -4.4830   35.5260    2.2130 H   0  0  0  0  0  0  0  0  0  0  0  0
   -7.0370   38.3950   -0.3780 H   0  0  0  0  0  0  0  0  0  0  0  0
   -8.6950   34.5330    0.8550 H   0  0  0  0  0  0  0  0  0  0  0  0
  -10.8330   34.1320    2.0030 H   0  0  0  0  0  0  0  0  0  0  0  0
  -13.3770   35.6300    2.4110 H   0  0  0  0  0  0  0  0  0  0  0  0
  -14.1090   34.6980   -0.3070 H   0  0  0  0  0  0  0  0  0  0  0  0
  -15.9000   33.4310    1.0800 H   0  0  0  0  0  0  0  0  0  0  0  0
  -15.1430   34.1350    2.5290 H   0  0  0  0  0  0  0  0  0  0  0  0
  -16.1360   35.7540    0.1200 H   0  0  0  0  0  0  0  0  0  0  0  0
  -15.4760   36.4180    1.6350 H   0  0  0  0  0  0  0  0  0  0  0  0
  -17.3110   34.9240    2.6710 H   0  0  0  0  0  0  0  0  0  0  0  0
  -17.1590   37.3710    2.7630 H   0  0  0  0  0  0  0  0  0  0  0  0
  -17.9140   37.4130    1.1520 H   0  0  0  0  0  0  0  0  0  0  0  0
  -19.6380   37.7460    2.9480 H   0  0  0  0  0  0  0  0  0  0  0  0
  -19.1810   36.1840    3.6690 H   0  0  0  0  0  0  0  0  0  0  0  0
  -19.6290   34.1490    2.4150 H   0  0  0  0  0  0  0  0  0  0  0  0
  -20.3990   34.2850    0.8160 H   0  0  0  0  0  0  0  0  0  0  0  0
  -18.3500   35.4370   -0.0660 H   0  0  0  0  0  0  0  0  0  0  0  0
  -17.9370   33.8320    0.5840 H   0  0  0  0  0  0  0  0  0  0  0  0
  -13.2480   32.5020    1.6210 H   0  0  0  0  0  0  0  0  0  0  0  0
  -12.2760   33.0570    0.2370 H   0  0  0  0  0  0  0  0  0  0  0  0
  -15.3740   29.5630   -1.5700 H   0  0  0  0  0  0  0  0  0  0  0  0
  -14.6050   27.2220   -1.5080 H   0  0  0  0  0  0  0  0  0  0  0  0
  -12.5060   26.6360   -0.3420 H   0  0  0  0  0  0  0  0  0  0  0  0
  -11.1720   28.4010    0.7580 H   0  0  0  0  0  0  0  0  0  0  0  0
  -11.9300   30.7480    0.7000 H   0  0  0  0  0  0  0  0  0  0  0  0
  -10.5010   37.6630   -1.4300 H   0  0  0  0  0  0  0  0  0  0  0  0
   -4.9100   36.9840   -1.8020 H   0  0  0  0  0  0  0  0  0  0  0  0
   -2.6200   36.2470   -2.3120 H   0  0  0  0  0  0  0  0  0  0  0  0
   -0.0270   35.8410    1.0460 H   0  0  0  0  0  0  0  0  0  0  0  0
   -0.0020   34.0650    0.9310 H   0  0  0  0  0  0  0  0  0  0  0  0
    2.2500   35.0240    0.3510 H   0  0  0  0  0  0  0  0  0  0  0  0
    1.4980   35.9900   -0.9410 H   0  0  0  0  0  0  0  0  0  0  0  0
    3.4710   31.7800    0.2090 H   0  0  0  0  0  0  0  0  0  0  0  0
    3.4610   31.4450   -1.5390 H   0  0  0  0  0  0  0  0  0  0  0  0
    6.9930   28.8500   -0.8610 H   0  0  0  0  0  0  0  0  0  0  0  0
    6.0710   28.5100   -2.3450 H   0  0  0  0  0  0  0  0  0  0  0  0
    8.2010   28.1900   -3.6080 H   0  0  0  0  0  0  0  0  0  0  0  0
    8.1560   27.0950   -2.2050 H   0  0  0  0  0  0  0  0  0  0  0  0
   23.4780   24.0210    4.0160 H   0  0  0  0  0  0  0  0  0  0  0  0
   22.8310   25.0830    2.7420 H   0  0  0  0  0  0  0  0  0  0  0  0
   24.5890   24.9580    2.9880 H   0  0  0  0  0  0  0  0  0  0  0  0
   24.6680   21.9890    3.4860 H   0  0  0  0  0  0  0  0  0  0  0  0
   25.7940   22.9020    2.4530 H   0  0  0  0  0  0  0  0  0  0  0  0
   24.9440   21.4800    1.8030 H   0  0  0  0  0  0  0  0  0  0  0  0
   22.2890   22.1130    3.1970 H   0  0  0  0  0  0  0  0  0  0  0  0
   22.4120   21.5760    1.5050 H   0  0  0  0  0  0  0  0  0  0  0  0
   21.5450   23.0790    1.9010 H   0  0  0  0  0  0  0  0  0  0  0  0
   28.4450   28.0390   -0.5490 H   0  0  0  0  0  0  0  0  0  0  0  0
   28.4650   29.9740    0.9690 H   0  0  0  0  0  0  0  0  0  0  0  0
   27.8220   32.9260    5.2490 H   0  0  0  0  0  0  0  0  0  0  0  0
  1  2  1  0  0  0  0
  1116  1  0  0  0  0
  1117  1  0  0  0  0
  1118  1  0  0  0  0
  2  3  2  0  0  0  0
  2115  1  0  0  0  0
  3  4  1  0  0  0  0
  3113  1  0  0  0  0
  4  5  1  0  0  0  0
  4112  2  0  0  0  0
  5  6  2  0  0  0  0
  5119  1  0  0  0  0
  6  7  1  0  0  0  0
  6120  1  0  0  0  0
  7  8  1  0  0  0  0
  7111  2  0  0  0  0
  8  9  1  0  0  0  0
  8 10  1  0  0  0  0
  8121  1  0  0  0  0
  9122  1  0  0  0  0
  9123  1  0  0  0  0
  9124  1  0  0  0  0
 10 11  1  0  0  0  0
 10125  1  0  0  0  0
 11 12  2  0  0  0  0
 11 13  1  0  0  0  0
 13 14  1  0  0  0  0
 13 18  1  0  0  0  0
 13126  1  0  0  0  0
 14 15  1  0  0  0  0
 14127  1  0  0  0  0
 14128  1  0  0  0  0
 15 16  1  0  0  0  0
 15 17  1  0  0  0  0
 15129  1  0  0  0  0
 16130  1  0  0  0  0
 17 18  1  0  0  0  0
 17131  1  0  0  0  0
 17132  1  0  0  0  0
 18 19  1  0  0  0  0
 19 20  2  0  0  0  0
 19 21  1  0  0  0  0
 21 22  1  0  0  0  0
 21107  1  0  0  0  0
 21133  1  0  0  0  0
 22 23  1  0  0  0  0
 22134  1  0  0  0  0
 23 24  2  0  0  0  0
 23 25  1  0  0  0  0
 25 26  1  0  0  0  0
 25135  1  0  0  0  0
 25136  1  0  0  0  0
 26 27  1  0  0  0  0
 26137  1  0  0  0  0
 26138  1  0  0  0  0
 27 28  1  0  0  0  0
 27139  1  0  0  0  0
 27140  1  0  0  0  0
 28 29  1  0  0  0  0
 28141  1  0  0  0  0
 28142  1  0  0  0  0
 29 30  1  0  0  0  0
 29143  1  0  0  0  0
 29144  1  0  0  0  0
 30 31  1  0  0  0  0
 30145  1  0  0  0  0
 30146  1  0  0  0  0
 31 32  1  0  0  0  0
 31147  1  0  0  0  0
 31148  1  0  0  0  0
 32 33  1  0  0  0  0
 32149  1  0  0  0  0
 32150  1  0  0  0  0
 33 34  1  0  0  0  0
 33151  1  0  0  0  0
 33152  1  0  0  0  0
 34 35  2  0  0  0  0
 34 36  1  0  0  0  0
 36 37  1  0  0  0  0
 36106  1  0  0  0  0
 37 38  1  0  0  0  0
 37153  1  0  0  0  0
 37154  1  0  0  0  0
 38 39  1  0  0  0  0
 38155  1  0  0  0  0
 38156  1  0  0  0  0
 39 40  1  0  0  0  0
 39105  1  0  0  0  0
 39157  1  0  0  0  0
 40 41  1  0  0  0  0
 40158  1  0  0  0  0
 40159  1  0  0  0  0
 41 42  1  0  0  0  0
 41 43  1  0  0  0  0
 41104  1  0  0  0  0
 42160  1  0  0  0  0
 42161  1  0  0  0  0
 42162  1  0  0  0  0
 43 44  1  0  0  0  0
 43163  1  0  0  0  0
 43164  1  0  0  0  0
 44 45  1  0  0  0  0
 44165  1  0  0  0  0
 44166  1  0  0  0  0
 45 46  1  0  0  0  0
 45 53  2  0  0  0  0
 46 47  1  0  0  0  0
 46 52  2  0  0  0  0
 47 48  2  0  0  0  0
 47167  1  0  0  0  0
 48 49  1  0  0  0  0
 48168  1  0  0  0  0
 49 50  1  0  0  0  0
 49 51  2  0  0  0  0
 51 52  1  0  0  0  0
 51169  1  0  0  0  0
 52170  1  0  0  0  0
 53 54  1  0  0  0  0
 53104  1  0  0  0  0
 54 55  1  0  0  0  0
 54171  1  0  0  0  0
 54172  1  0  0  0  0
 55 56  1  0  0  0  0
 55103  1  0  0  0  0
 55173  1  0  0  0  0
 56 57  1  0  0  0  0
 56174  1  0  0  0  0
 56175  1  0  0  0  0
 57 58  1  0  0  0  0
 57176  1  0  0  0  0
 57177  1  0  0  0  0
 58 59  1  0  0  0  0
 58102  1  0  0  0  0
 59 60  1  0  0  0  0
 59101  2  0  0  0  0
 60 61  2  0  0  0  0
 60178  1  0  0  0  0
 61 62  1  0  0  0  0
 61179  1  0  0  0  0
 62 63  1  0  0  0  0
 62100  2  0  0  0  0
 63 64  2  0  0  0  0
 63 65  1  0  0  0  0
 65 66  1  0  0  0  0
 65180  1  0  0  0  0
 66 67  2  0  0  0  0
 66 68  2  0  0  0  0
 66 69  1  0  0  0  0
 69 70  1  0  0  0  0
 69 99  2  0  0  0  0
 70 71  2  0  0  0  0
 70181  1  0  0  0  0
 71 72  1  0  0  0  0
 71182  1  0  0  0  0
 72 73  1  0  0  0  0
 72 91  2  0  0  0  0
 73 74  1  0  0  0  0
 73183  1  0  0  0  0
 74 75  1  0  0  0  0
 74 83  1  0  0  0  0
 74184  1  0  0  0  0
 75 76  1  0  0  0  0
 75185  1  0  0  0  0
 75186  1  0  0  0  0
 76 77  1  0  0  0  0
 76187  1  0  0  0  0
 76188  1  0  0  0  0
 77 78  1  0  0  0  0
 77 82  1  0  0  0  0
 77189  1  0  0  0  0
 78 79  1  0  0  0  0
 78190  1  0  0  0  0
 78191  1  0  0  0  0
 79 80  1  0  0  0  0
 79192  1  0  0  0  0
 79193  1  0  0  0  0
 80 81  1  0  0  0  0
 81 82  1  0  0  0  0
 81194  1  0  0  0  0
 81195  1  0  0  0  0
 82196  1  0  0  0  0
 82197  1  0  0  0  0
 83 84  1  0  0  0  0
 83198  1  0  0  0  0
 83199  1  0  0  0  0
 84 85  1  0  0  0  0
 85 86  1  0  0  0  0
 85 90  2  0  0  0  0
 86 87  2  0  0  0  0
 86200  1  0  0  0  0
 87 88  1  0  0  0  0
 87201  1  0  0  0  0
 88 89  2  0  0  0  0
 88202  1  0  0  0  0
 89 90  1  0  0  0  0
 89203  1  0  0  0  0
 90204  1  0  0  0  0
 91 92  1  0  0  0  0
 91 99  1  0  0  0  0
 92 93  2  0  0  0  0
 92 94  2  0  0  0  0
 92 95  1  0  0  0  0
 95 96  1  0  0  0  0
 95 97  1  0  0  0  0
 95 98  1  0  0  0  0
 99205  1  0  0  0  0
100101  1  0  0  0  0
100206  1  0  0  0  0
101207  1  0  0  0  0
102103  1  0  0  0  0
102208  1  0  0  0  0
102209  1  0  0  0  0
103210  1  0  0  0  0
103211  1  0  0  0  0
104212  1  0  0  0  0
104213  1  0  0  0  0
105106  1  0  0  0  0
105214  1  0  0  0  0
105215  1  0  0  0  0
106216  1  0  0  0  0
106217  1  0  0  0  0
107108  1  0  0  0  0
107109  1  0  0  0  0
107110  1  0  0  0  0
108218  1  0  0  0  0
108219  1  0  0  0  0
108220  1  0  0  0  0
109221  1  0  0  0  0
109222  1  0  0  0  0
109223  1  0  0  0  0
110224  1  0  0  0  0
110225  1  0  0  0  0
110226  1  0  0  0  0
111112  1  0  0  0  0
111227  1  0  0  0  0
112228  1  0  0  0  0
113114  1  0  0  0  0
114115  2  0  0  0  0
114229  1  0  0  0  0
M  CHG  1  39   1
M  CHG  1  55   1
M  CHG  1  77   1
M  END
>  <Compound ID>
3219

>  <Uniprot>
P10415

>  <Target>
BCL2

>  <E3 ligase>
VHL

>  <Name>
PPC11

>  <Dmax (%)>
38

>  <Assay (DC50/Dmax)>
Degradation of BCL2 in 293T cells after 16 h treatment

>  <Article DOI>
10.1038/s41467-021-27210-x

>  <Molecular Weight>
1683.604

>  <Exact Mass>
1681.6989

>  <XLogP3>
13.94

>  <Heavy Atom Count>
115

>  <Ring Count>
11

>  <Hydrogen Bond Acceptor Count>
19

>  <Hydrogen Bond Donor Count>
5

>  <Rotatable Bond Count>
34

>  <Topological Polar Surface Area>
263.54001

>  <Molecular Formula>
C85H111ClF3N11O11S4

>  <InChI>
InChI=1S/C85H111ClF3N11O11S4/c1-59(61-21-23-63(24-22-61)78-60(2)90-58-113-78)91-81(105)74-51-69(101)55-100(74)82(106)79(83(3,4)5)93-76(102)19-15-10-8-7-9-11-16-20-77(103)99-45-41-97(42-46-99)57-84(6)37-35-72(62-25-29-66(86)30-26-62)65(53-84)54-96-39-43-98(44-40-96)68-31-27-64(28-32-68)80(104)94-115(109,110)71-33-34-73(75(52-71)114(107,108)85(87,88)89)92-67(36-38-95-47-49-111-50-48-95)56-112-70-17-13-12-14-18-70/h12-14,17-18,21-34,52,58-59,67,69,74,79,92,101H,7-11,15-16,19-20,35-51,53-57H2,1-6H3,(H,91,105)(H,93,102)(H,94,104)/t59-,67+,69+,74-,79+,84?/m0/s1

>  <InChI Key>
UQQFHLGCSOEWFT-SPQPUINASA-N

$$$$
3220
  MOE2018           3D

220230  0  0  1  0  0  0  0  0999 V2000
   18.8200  -32.7340   -4.9350 C   0  0  0  0  0  0  0  0  0  0  0  0
   17.5370  -31.9400   -4.8630 C   0  0  0  0  0  0  0  0  0  0  0  0
   16.7390  -31.8240   -3.7520 C   0  0  0  0  0  0  0  0  0  0  0  0
   16.9250  -32.3820   -2.4190 C   0  0  0  0  0  0  0  0  0  0  0  0
   18.1410  -32.2450   -1.7420 C   0  0  0  0  0  0  0  0  0  0  0  0
   18.3170  -32.7860   -0.4740 C   0  0  0  0  0  0  0  0  0  0  0  0
   17.2760  -33.4670    0.1580 C   0  0  0  0  0  0  0  0  0  0  0  0
   17.5070  -34.0620    1.5400 C   0  0  2  0  0  0  0  0  0  0  0  0
   17.5580  -35.5850    1.3970 C   0  0  0  0  0  0  0  0  0  0  0  0
   16.3710  -33.7760    2.3950 N   0  0  0  0  0  0  0  0  0  0  0  0
   15.9700  -32.5950    2.8620 C   0  0  0  0  0  0  0  0  0  0  0  0
   15.0570  -32.6080    3.6760 O   0  0  0  0  0  0  0  0  0  0  0  0
   16.6660  -31.2600    2.4440 C   0  0  2  0  0  0  0  0  0  0  0  0
   18.0090  -31.0890    3.1730 C   0  0  0  0  0  0  0  0  0  0  0  0
   18.1250  -29.5950    3.4540 C   0  0  1  0  0  0  0  0  0  0  0  0
   18.6700  -28.9570    2.3180 O   0  0  0  0  0  0  0  0  0  0  0  0
   16.6680  -29.1890    3.6670 C   0  0  0  0  0  0  0  0  0  0  0  0
   15.9080  -30.0410    2.7630 N   0  0  0  0  0  0  0  0  0  0  0  0
   14.6430  -29.7540    2.3950 C   0  0  0  0  0  0  0  0  0  0  0  0
   14.0590  -28.8140    2.9380 O   0  0  0  0  0  0  0  0  0  0  0  0
   13.9250  -30.5630    1.2700 C   0  0  1  0  0  0  0  0  0  0  0  0
   12.6410  -31.0780    1.7590 N   0  0  0  0  0  0  0  0  0  0  0  0
   12.2240  -32.3280    1.5780 C   0  0  0  0  0  0  0  0  0  0  0  0
   12.8360  -33.1340    0.8870 O   0  0  0  0  0  0  0  0  0  0  0  0
   10.9130  -32.7230    2.2480 C   0  0  0  0  0  0  0  0  0  0  0  0
    9.7090  -31.9340    1.7020 C   0  0  0  0  0  0  0  0  0  0  0  0
    8.3930  -32.4350    2.3130 C   0  0  0  0  0  0  0  0  0  0  0  0
    7.2240  -31.5550    1.8540 C   0  0  0  0  0  0  0  0  0  0  0  0
    5.8900  -32.0990    2.3860 C   0  0  0  0  0  0  0  0  0  0  0  0
    4.7280  -31.1520    2.0270 C   0  0  0  0  0  0  0  0  0  0  0  0
    3.3450  -31.6500    2.4730 C   0  0  0  0  0  0  0  0  0  0  0  0
    3.2130  -32.8020    2.8660 O   0  0  0  0  0  0  0  0  0  0  0  0
    2.2700  -30.8350    2.3820 N   0  0  0  0  0  0  0  0  0  0  0  0
    2.2560  -29.5200    1.6980 C   0  0  0  0  0  0  0  0  0  0  0  0
    1.2960  -29.6790    0.4890 C   0  0  0  0  0  0  0  0  0  0  0  0
   -0.0660  -30.0660    1.0020 N   0  3  0  0  0  0  0  0  0  0  0  0
   -0.9900  -30.1620   -0.1560 C   0  0  0  0  0  0  0  0  0  0  0  0
   -2.0630  -29.0290   -0.0430 C   0  0  1  0  0  0  0  0  0  0  0  0
   -2.8820  -29.2310    1.2580 C   0  0  0  0  0  0  0  0  0  0  0  0
   -1.3740  -27.6420   -0.1130 C   0  0  0  0  0  0  0  0  0  0  0  0
   -2.4160  -26.5180    0.0540 C   0  0  0  0  0  0  0  0  0  0  0  0
   -3.5530  -26.7180   -0.9350 C   0  0  0  0  0  0  0  0  0  0  0  0
   -4.3090  -25.5000   -1.2130 C   0  0  0  0  0  0  0  0  0  0  0  0
   -4.9940  -24.8390   -0.1830 C   0  0  0  0  0  0  0  0  0  0  0  0
   -5.7360  -23.6930   -0.4440 C   0  0  0  0  0  0  0  0  0  0  0  0
   -5.7930  -23.1820   -1.7410 C   0  0  0  0  0  0  0  0  0  0  0  0
   -6.7330  -21.7650   -2.0730 Cl  0  0  0  0  0  0  0  0  0  0  0  0
   -5.0920  -23.8110   -2.7700 C   0  0  0  0  0  0  0  0  0  0  0  0
   -4.3500  -24.9560   -2.5040 C   0  0  0  0  0  0  0  0  0  0  0  0
   -3.8420  -27.9190   -1.4980 C   0  0  0  0  0  0  0  0  0  0  0  0
   -4.9810  -28.0890   -2.4910 C   0  0  0  0  0  0  0  0  0  0  0  0
   -6.0710  -28.6540   -1.6940 N   0  3  0  0  0  0  0  0  0  0  0  0
   -6.9440  -29.4590   -2.6200 C   0  0  0  0  0  0  0  0  0  0  0  0
   -8.1250  -30.0620   -1.8170 C   0  0  0  0  0  0  0  0  0  0  0  0
   -8.8700  -28.9130   -1.2540 N   0  0  0  0  0  0  0  0  0  0  0  0
  -10.2440  -29.0880   -1.0340 C   0  0  0  0  0  0  0  0  0  0  0  0
  -11.0600  -29.4480   -2.1120 C   0  0  0  0  0  0  0  0  0  0  0  0
  -12.4260  -29.6060   -1.9290 C   0  0  0  0  0  0  0  0  0  0  0  0
  -13.0140  -29.4020   -0.6670 C   0  0  0  0  0  0  0  0  0  0  0  0
  -14.4580  -29.5480   -0.4540 C   0  0  0  0  0  0  0  0  0  0  0  0
  -15.0250  -29.4430    0.6220 O   0  0  0  0  0  0  0  0  0  0  0  0
  -15.3070  -29.8000   -1.4570 N   0  0  0  0  0  0  0  0  0  0  0  0
  -15.8170  -28.4190   -2.1970 S   0  0  0  0  0  0  0  0  0  0  0  0
  -16.0850  -28.7360   -3.5490 O   0  0  0  0  0  0  0  0  0  0  0  0
  -14.8610  -27.3980   -1.9790 O   0  0  0  0  0  0  0  0  0  0  0  0
  -17.3570  -27.9580   -1.3690 C   0  0  0  0  0  0  0  0  0  0  0  0
  -17.3280  -27.3650   -0.1060 C   0  0  0  0  0  0  0  0  0  0  0  0
  -18.5010  -26.9670    0.5150 C   0  0  0  0  0  0  0  0  0  0  0  0
  -19.7310  -27.1270   -0.1260 C   0  0  0  0  0  0  0  0  0  0  0  0
  -20.8440  -26.6510    0.5850 N   0  0  0  0  0  0  0  0  0  0  0  0
  -21.3480  -25.2900    0.3220 C   0  0  2  0  0  0  0  0  0  0  0  0
  -20.2770  -24.2790    0.7770 C   0  0  0  0  0  0  0  0  0  0  0  0
  -20.7440  -22.8820    0.3380 C   0  0  0  0  0  0  0  0  0  0  0  0
  -19.7210  -21.9410    0.8360 N   0  3  0  0  0  0  0  0  0  0  0  0
  -20.3590  -20.5860    0.9210 C   0  0  0  0  0  0  0  0  0  0  0  0
  -19.2960  -19.5910    1.4450 C   0  0  0  0  0  0  0  0  0  0  0  0
  -18.2260  -19.5930    0.5050 O   0  0  0  0  0  0  0  0  0  0  0  0
  -17.5570  -20.8460    0.3740 C   0  0  0  0  0  0  0  0  0  0  0  0
  -18.5960  -21.8610   -0.1620 C   0  0  0  0  0  0  0  0  0  0  0  0
  -22.6500  -25.1530    1.1400 C   0  0  0  0  0  0  0  0  0  0  0  0
  -23.8370  -26.3340    0.4060 S   0  0  0  0  0  0  0  0  0  0  0  0
  -25.4100  -25.7380    0.8780 C   0  0  0  0  0  0  0  0  0  0  0  0
  -26.4930  -25.9340    0.0150 C   0  0  0  0  0  0  0  0  0  0  0  0
  -27.7530  -25.4560    0.3530 C   0  0  0  0  0  0  0  0  0  0  0  0
  -27.9480  -24.7850    1.5570 C   0  0  0  0  0  0  0  0  0  0  0  0
  -26.8770  -24.5990    2.4280 C   0  0  0  0  0  0  0  0  0  0  0  0
  -25.6140  -25.0750    2.0960 C   0  0  0  0  0  0  0  0  0  0  0  0
  -19.7980  -27.7540   -1.3880 C   0  0  0  0  0  0  0  0  0  0  0  0
  -21.3450  -28.0400   -2.2840 S   0  0  0  0  0  0  0  0  0  0  0  0
  -22.1120  -26.8400   -2.2630 O   0  0  0  0  0  0  0  0  0  0  0  0
  -21.0170  -28.5190   -3.5850 O   0  0  0  0  0  0  0  0  0  0  0  0
  -22.1910  -29.4170   -1.2860 C   0  0  0  0  0  0  0  0  0  0  0  0
  -22.3580  -29.1280    0.0260 F   0  0  0  0  0  0  0  0  0  0  0  0
  -23.4260  -29.7580   -1.7240 F   0  0  0  0  0  0  0  0  0  0  0  0
  -21.4960  -30.5820   -1.2760 F   0  0  0  0  0  0  0  0  0  0  0  0
  -18.5960  -28.1490   -1.9900 C   0  0  0  0  0  0  0  0  0  0  0  0
  -12.1800  -29.0460    0.4070 C   0  0  0  0  0  0  0  0  0  0  0  0
  -10.8120  -28.8900    0.2320 C   0  0  0  0  0  0  0  0  0  0  0  0
   -8.0840  -28.0520   -0.3390 C   0  0  0  0  0  0  0  0  0  0  0  0
   -6.8890  -27.5050   -1.1620 C   0  0  0  0  0  0  0  0  0  0  0  0
   -3.0020  -29.1800   -1.2740 C   0  0  0  0  0  0  0  0  0  0  0  0
    0.0420  -31.4270    1.6390 C   0  0  0  0  0  0  0  0  0  0  0  0
    0.9480  -31.2930    2.8850 C   0  0  0  0  0  0  0  0  0  0  0  0
   13.7460  -29.7490   -0.0570 C   0  0  0  0  0  0  0  0  0  0  0  0
   15.1250  -29.3300   -0.6050 C   0  0  0  0  0  0  0  0  0  0  0  0
   12.8850  -28.4770    0.0920 C   0  0  0  0  0  0  0  0  0  0  0  0
   13.0720  -30.6040   -1.1500 C   0  0  0  0  0  0  0  0  0  0  0  0
   16.0530  -33.5930   -0.5060 C   0  0  0  0  0  0  0  0  0  0  0  0
   15.8840  -33.0630   -1.7790 C   0  0  0  0  0  0  0  0  0  0  0  0
   15.3720  -30.8570   -4.1240 S   0  0  0  0  0  0  0  0  0  0  0  0
   15.9780  -30.6640   -5.7200 C   0  0  0  0  0  0  0  0  0  0  0  0
   17.1020  -31.2750   -5.9640 N   0  0  0  0  0  0  0  0  0  0  0  0
   19.0150  -33.1980   -3.9680 H   0  0  0  0  0  0  0  0  0  0  0  0
   19.6450  -32.0690   -5.1910 H   0  0  0  0  0  0  0  0  0  0  0  0
   18.7260  -33.5070   -5.6970 H   0  0  0  0  0  0  0  0  0  0  0  0
   18.9540  -31.7110   -2.2110 H   0  0  0  0  0  0  0  0  0  0  0  0
   19.2680  -32.6780    0.0270 H   0  0  0  0  0  0  0  0  0  0  0  0
   18.4240  -33.6480    1.9590 H   0  0  0  0  0  0  0  0  0  0  0  0
   16.6180  -35.9420    0.9750 H   0  0  0  0  0  0  0  0  0  0  0  0
   17.7110  -36.0370    2.3770 H   0  0  0  0  0  0  0  0  0  0  0  0
   18.3810  -35.8610    0.7370 H   0  0  0  0  0  0  0  0  0  0  0  0
   15.8140  -34.5720    2.6710 H   0  0  0  0  0  0  0  0  0  0  0  0
   16.7650  -31.3570    1.3630 H   0  0  0  0  0  0  0  0  0  0  0  0
   18.8320  -31.4240    2.5420 H   0  0  0  0  0  0  0  0  0  0  0  0
   18.0130  -31.6540    4.1050 H   0  0  0  0  0  0  0  0  0  0  0  0
   18.7650  -29.3340    4.2970 H   0  0  0  0  0  0  0  0  0  0  0  0
   18.1150  -29.1790    1.5670 H   0  0  0  0  0  0  0  0  0  0  0  0
   16.5220  -28.1380    3.4180 H   0  0  0  0  0  0  0  0  0  0  0  0
   16.3680  -29.3620    4.7010 H   0  0  0  0  0  0  0  0  0  0  0  0
   14.5720  -31.4030    1.0170 H   0  0  0  0  0  0  0  0  0  0  0  0
   12.0370  -30.4450    2.2640 H   0  0  0  0  0  0  0  0  0  0  0  0
   10.7400  -33.7860    2.0780 H   0  0  0  0  0  0  0  0  0  0  0  0
   10.9970  -32.5350    3.3180 H   0  0  0  0  0  0  0  0  0  0  0  0
    9.8350  -30.8790    1.9460 H   0  0  0  0  0  0  0  0  0  0  0  0
    9.6670  -32.0540    0.6190 H   0  0  0  0  0  0  0  0  0  0  0  0
    8.2170  -33.4620    1.9940 H   0  0  0  0  0  0  0  0  0  0  0  0
    8.4650  -32.3990    3.4000 H   0  0  0  0  0  0  0  0  0  0  0  0
    7.1950  -31.5400    0.7650 H   0  0  0  0  0  0  0  0  0  0  0  0
    7.3710  -30.5420    2.2280 H   0  0  0  0  0  0  0  0  0  0  0  0
    5.9500  -32.1950    3.4700 H   0  0  0  0  0  0  0  0  0  0  0  0
    5.7020  -33.0780    1.9450 H   0  0  0  0  0  0  0  0  0  0  0  0
    4.7130  -31.0260    0.9440 H   0  0  0  0  0  0  0  0  0  0  0  0
    4.9130  -30.1890    2.5020 H   0  0  0  0  0  0  0  0  0  0  0  0
    1.8910  -28.7460    2.3730 H   0  0  0  0  0  0  0  0  0  0  0  0
    3.2580  -29.2600    1.3550 H   0  0  0  0  0  0  0  0  0  0  0  0
    1.6710  -30.4550   -0.1780 H   0  0  0  0  0  0  0  0  0  0  0  0
    1.2290  -28.7360   -0.0530 H   0  0  0  0  0  0  0  0  0  0  0  0
   -0.4040  -29.3870    1.6690 H   0  0  0  0  0  0  0  0  0  0  0  0
   -0.4290  -30.0430   -1.0830 H   0  0  0  0  0  0  0  0  0  0  0  0
   -1.4830  -31.1340   -0.1510 H   0  0  0  0  0  0  0  0  0  0  0  0
   -3.6310  -28.4440    1.3420 H   0  0  0  0  0  0  0  0  0  0  0  0
   -2.2140  -29.1890    2.1180 H   0  0  0  0  0  0  0  0  0  0  0  0
   -3.3770  -30.2020    1.2290 H   0  0  0  0  0  0  0  0  0  0  0  0
   -0.6340  -27.5680    0.6840 H   0  0  0  0  0  0  0  0  0  0  0  0
   -0.8800  -27.5340   -1.0790 H   0  0  0  0  0  0  0  0  0  0  0  0
   -1.9410  -25.5540   -0.1310 H   0  0  0  0  0  0  0  0  0  0  0  0
   -2.8120  -26.5400    1.0690 H   0  0  0  0  0  0  0  0  0  0  0  0
   -4.9440  -25.2250    0.8240 H   0  0  0  0  0  0  0  0  0  0  0  0
   -6.2680  -23.1990    0.3560 H   0  0  0  0  0  0  0  0  0  0  0  0
   -5.1260  -23.4090   -3.7720 H   0  0  0  0  0  0  0  0  0  0  0  0
   -3.7990  -25.4320   -3.3010 H   0  0  0  0  0  0  0  0  0  0  0  0
   -4.6960  -28.7690   -3.2930 H   0  0  0  0  0  0  0  0  0  0  0  0
   -5.2710  -27.1280   -2.9150 H   0  0  0  0  0  0  0  0  0  0  0  0
   -5.7180  -29.2270   -0.9410 H   0  0  0  0  0  0  0  0  0  0  0  0
   -7.3320  -28.8130   -3.4080 H   0  0  0  0  0  0  0  0  0  0  0  0
   -6.3580  -30.2630   -3.0650 H   0  0  0  0  0  0  0  0  0  0  0  0
   -7.7510  -30.6990   -1.0160 H   0  0  0  0  0  0  0  0  0  0  0  0
   -8.7700  -30.6450   -2.4740 H   0  0  0  0  0  0  0  0  0  0  0  0
  -10.6260  -29.6030   -3.0890 H   0  0  0  0  0  0  0  0  0  0  0  0
  -13.0460  -29.8890   -2.7660 H   0  0  0  0  0  0  0  0  0  0  0  0
  -15.6010  -30.7270   -1.7290 H   0  0  0  0  0  0  0  0  0  0  0  0
  -16.3820  -27.2150    0.3920 H   0  0  0  0  0  0  0  0  0  0  0  0
  -18.4640  -26.5300    1.5020 H   0  0  0  0  0  0  0  0  0  0  0  0
  -21.2970  -27.2370    1.2720 H   0  0  0  0  0  0  0  0  0  0  0  0
  -21.5510  -25.1030   -0.7320 H   0  0  0  0  0  0  0  0  0  0  0  0
  -20.1710  -24.3120    1.8610 H   0  0  0  0  0  0  0  0  0  0  0  0
  -19.3200  -24.5150    0.3110 H   0  0  0  0  0  0  0  0  0  0  0  0
  -21.7160  -22.6520    0.7750 H   0  0  0  0  0  0  0  0  0  0  0  0
  -20.8120  -22.8290   -0.7490 H   0  0  0  0  0  0  0  0  0  0  0  0
  -19.3680  -22.2440    1.7330 H   0  0  0  0  0  0  0  0  0  0  0  0
  -20.7020  -20.2760   -0.0660 H   0  0  0  0  0  0  0  0  0  0  0  0
  -21.2060  -20.6180    1.6060 H   0  0  0  0  0  0  0  0  0  0  0  0
  -18.9360  -19.9090    2.4230 H   0  0  0  0  0  0  0  0  0  0  0  0
  -19.7240  -18.5920    1.5230 H   0  0  0  0  0  0  0  0  0  0  0  0
  -16.7270  -20.7550   -0.3260 H   0  0  0  0  0  0  0  0  0  0  0  0
  -17.1810  -21.1720    1.3440 H   0  0  0  0  0  0  0  0  0  0  0  0
  -18.1320  -22.8410   -0.2770 H   0  0  0  0  0  0  0  0  0  0  0  0
  -18.9790  -21.5250   -1.1260 H   0  0  0  0  0  0  0  0  0  0  0  0
  -23.0360  -24.1360    1.0700 H   0  0  0  0  0  0  0  0  0  0  0  0
  -22.4680  -25.4010    2.1860 H   0  0  0  0  0  0  0  0  0  0  0  0
  -26.3490  -26.4590   -0.9180 H   0  0  0  0  0  0  0  0  0  0  0  0
  -28.5840  -25.6050   -0.3210 H   0  0  0  0  0  0  0  0  0  0  0  0
  -28.9270  -24.4100    1.8150 H   0  0  0  0  0  0  0  0  0  0  0  0
  -27.0290  -24.0830    3.3650 H   0  0  0  0  0  0  0  0  0  0  0  0
  -24.7880  -24.9340    2.7780 H   0  0  0  0  0  0  0  0  0  0  0  0
  -18.6270  -28.6150   -2.9640 H   0  0  0  0  0  0  0  0  0  0  0  0
  -12.6110  -28.8910    1.3850 H   0  0  0  0  0  0  0  0  0  0  0  0
  -10.1870  -28.6170    1.0690 H   0  0  0  0  0  0  0  0  0  0  0  0
   -8.6990  -27.2280    0.0240 H   0  0  0  0  0  0  0  0  0  0  0  0
   -7.7220  -28.6350    0.5080 H   0  0  0  0  0  0  0  0  0  0  0  0
   -6.2640  -26.8810   -0.5230 H   0  0  0  0  0  0  0  0  0  0  0  0
   -7.2640  -26.9110   -1.9950 H   0  0  0  0  0  0  0  0  0  0  0  0
   -3.6700  -30.0250   -1.1080 H   0  0  0  0  0  0  0  0  0  0  0  0
   -2.3960  -29.3640   -2.1610 H   0  0  0  0  0  0  0  0  0  0  0  0
   -0.9470  -31.7780    1.9350 H   0  0  0  0  0  0  0  0  0  0  0  0
    0.4820  -32.1330    0.9340 H   0  0  0  0  0  0  0  0  0  0  0  0
    1.0460  -32.2550    3.3870 H   0  0  0  0  0  0  0  0  0  0  0  0
    0.5330  -30.5620    3.5790 H   0  0  0  0  0  0  0  0  0  0  0  0
   14.9930  -28.7650   -1.5270 H   0  0  0  0  0  0  0  0  0  0  0  0
   15.7220  -30.2200   -0.8060 H   0  0  0  0  0  0  0  0  0  0  0  0
   15.6350  -28.7090    0.1320 H   0  0  0  0  0  0  0  0  0  0  0  0
   12.8110  -27.9730   -0.8720 H   0  0  0  0  0  0  0  0  0  0  0  0
   13.3480  -27.8080    0.8170 H   0  0  0  0  0  0  0  0  0  0  0  0
   11.8880  -28.7520    0.4360 H   0  0  0  0  0  0  0  0  0  0  0  0
   12.9620  -30.0120   -2.0580 H   0  0  0  0  0  0  0  0  0  0  0  0
   12.0900  -30.9260   -0.8050 H   0  0  0  0  0  0  0  0  0  0  0  0
   13.6880  -31.4780   -1.3590 H   0  0  0  0  0  0  0  0  0  0  0  0
   15.2330  -34.1060   -0.0260 H   0  0  0  0  0  0  0  0  0  0  0  0
   14.9350  -33.1780   -2.2820 H   0  0  0  0  0  0  0  0  0  0  0  0
   15.4640  -30.0780   -6.4670 H   0  0  0  0  0  0  0  0  0  0  0  0
  1  2  1  0  0  0  0
  1113  1  0  0  0  0
  1114  1  0  0  0  0
  1115  1  0  0  0  0
  2  3  2  0  0  0  0
  2112  1  0  0  0  0
  3  4  1  0  0  0  0
  3110  1  0  0  0  0
  4  5  1  0  0  0  0
  4109  2  0  0  0  0
  5  6  2  0  0  0  0
  5116  1  0  0  0  0
  6  7  1  0  0  0  0
  6117  1  0  0  0  0
  7  8  1  0  0  0  0
  7108  2  0  0  0  0
  8  9  1  0  0  0  0
  8 10  1  0  0  0  0
  8118  1  0  0  0  0
  9119  1  0  0  0  0
  9120  1  0  0  0  0
  9121  1  0  0  0  0
 10 11  1  0  0  0  0
 10122  1  0  0  0  0
 11 12  2  0  0  0  0
 11 13  1  0  0  0  0
 13 14  1  0  0  0  0
 13 18  1  0  0  0  0
 13123  1  0  0  0  0
 14 15  1  0  0  0  0
 14124  1  0  0  0  0
 14125  1  0  0  0  0
 15 16  1  0  0  0  0
 15 17  1  0  0  0  0
 15126  1  0  0  0  0
 16127  1  0  0  0  0
 17 18  1  0  0  0  0
 17128  1  0  0  0  0
 17129  1  0  0  0  0
 18 19  1  0  0  0  0
 19 20  2  0  0  0  0
 19 21  1  0  0  0  0
 21 22  1  0  0  0  0
 21104  1  0  0  0  0
 21130  1  0  0  0  0
 22 23  1  0  0  0  0
 22131  1  0  0  0  0
 23 24  2  0  0  0  0
 23 25  1  0  0  0  0
 25 26  1  0  0  0  0
 25132  1  0  0  0  0
 25133  1  0  0  0  0
 26 27  1  0  0  0  0
 26134  1  0  0  0  0
 26135  1  0  0  0  0
 27 28  1  0  0  0  0
 27136  1  0  0  0  0
 27137  1  0  0  0  0
 28 29  1  0  0  0  0
 28138  1  0  0  0  0
 28139  1  0  0  0  0
 29 30  1  0  0  0  0
 29140  1  0  0  0  0
 29141  1  0  0  0  0
 30 31  1  0  0  0  0
 30142  1  0  0  0  0
 30143  1  0  0  0  0
 31 32  2  0  0  0  0
 31 33  1  0  0  0  0
 33 34  1  0  0  0  0
 33103  1  0  0  0  0
 34 35  1  0  0  0  0
 34144  1  0  0  0  0
 34145  1  0  0  0  0
 35 36  1  0  0  0  0
 35146  1  0  0  0  0
 35147  1  0  0  0  0
 36 37  1  0  0  0  0
 36102  1  0  0  0  0
 36148  1  0  0  0  0
 37 38  1  0  0  0  0
 37149  1  0  0  0  0
 37150  1  0  0  0  0
 38 39  1  0  0  0  0
 38 40  1  0  0  0  0
 38101  1  0  0  0  0
 39151  1  0  0  0  0
 39152  1  0  0  0  0
 39153  1  0  0  0  0
 40 41  1  0  0  0  0
 40154  1  0  0  0  0
 40155  1  0  0  0  0
 41 42  1  0  0  0  0
 41156  1  0  0  0  0
 41157  1  0  0  0  0
 42 43  1  0  0  0  0
 42 50  2  0  0  0  0
 43 44  1  0  0  0  0
 43 49  2  0  0  0  0
 44 45  2  0  0  0  0
 44158  1  0  0  0  0
 45 46  1  0  0  0  0
 45159  1  0  0  0  0
 46 47  1  0  0  0  0
 46 48  2  0  0  0  0
 48 49  1  0  0  0  0
 48160  1  0  0  0  0
 49161  1  0  0  0  0
 50 51  1  0  0  0  0
 50101  1  0  0  0  0
 51 52  1  0  0  0  0
 51162  1  0  0  0  0
 51163  1  0  0  0  0
 52 53  1  0  0  0  0
 52100  1  0  0  0  0
 52164  1  0  0  0  0
 53 54  1  0  0  0  0
 53165  1  0  0  0  0
 53166  1  0  0  0  0
 54 55  1  0  0  0  0
 54167  1  0  0  0  0
 54168  1  0  0  0  0
 55 56  1  0  0  0  0
 55 99  1  0  0  0  0
 56 57  1  0  0  0  0
 56 98  2  0  0  0  0
 57 58  2  0  0  0  0
 57169  1  0  0  0  0
 58 59  1  0  0  0  0
 58170  1  0  0  0  0
 59 60  1  0  0  0  0
 59 97  2  0  0  0  0
 60 61  2  0  0  0  0
 60 62  1  0  0  0  0
 62 63  1  0  0  0  0
 62171  1  0  0  0  0
 63 64  2  0  0  0  0
 63 65  2  0  0  0  0
 63 66  1  0  0  0  0
 66 67  1  0  0  0  0
 66 96  2  0  0  0  0
 67 68  2  0  0  0  0
 67172  1  0  0  0  0
 68 69  1  0  0  0  0
 68173  1  0  0  0  0
 69 70  1  0  0  0  0
 69 88  2  0  0  0  0
 70 71  1  0  0  0  0
 70174  1  0  0  0  0
 71 72  1  0  0  0  0
 71 80  1  0  0  0  0
 71175  1  0  0  0  0
 72 73  1  0  0  0  0
 72176  1  0  0  0  0
 72177  1  0  0  0  0
 73 74  1  0  0  0  0
 73178  1  0  0  0  0
 73179  1  0  0  0  0
 74 75  1  0  0  0  0
 74 79  1  0  0  0  0
 74180  1  0  0  0  0
 75 76  1  0  0  0  0
 75181  1  0  0  0  0
 75182  1  0  0  0  0
 76 77  1  0  0  0  0
 76183  1  0  0  0  0
 76184  1  0  0  0  0
 77 78  1  0  0  0  0
 78 79  1  0  0  0  0
 78185  1  0  0  0  0
 78186  1  0  0  0  0
 79187  1  0  0  0  0
 79188  1  0  0  0  0
 80 81  1  0  0  0  0
 80189  1  0  0  0  0
 80190  1  0  0  0  0
 81 82  1  0  0  0  0
 82 83  1  0  0  0  0
 82 87  2  0  0  0  0
 83 84  2  0  0  0  0
 83191  1  0  0  0  0
 84 85  1  0  0  0  0
 84192  1  0  0  0  0
 85 86  2  0  0  0  0
 85193  1  0  0  0  0
 86 87  1  0  0  0  0
 86194  1  0  0  0  0
 87195  1  0  0  0  0
 88 89  1  0  0  0  0
 88 96  1  0  0  0  0
 89 90  2  0  0  0  0
 89 91  2  0  0  0  0
 89 92  1  0  0  0  0
 92 93  1  0  0  0  0
 92 94  1  0  0  0  0
 92 95  1  0  0  0  0
 96196  1  0  0  0  0
 97 98  1  0  0  0  0
 97197  1  0  0  0  0
 98198  1  0  0  0  0
 99100  1  0  0  0  0
 99199  1  0  0  0  0
 99200  1  0  0  0  0
100201  1  0  0  0  0
100202  1  0  0  0  0
101203  1  0  0  0  0
101204  1  0  0  0  0
102103  1  0  0  0  0
102205  1  0  0  0  0
102206  1  0  0  0  0
103207  1  0  0  0  0
103208  1  0  0  0  0
104105  1  0  0  0  0
104106  1  0  0  0  0
104107  1  0  0  0  0
105209  1  0  0  0  0
105210  1  0  0  0  0
105211  1  0  0  0  0
106212  1  0  0  0  0
106213  1  0  0  0  0
106214  1  0  0  0  0
107215  1  0  0  0  0
107216  1  0  0  0  0
107217  1  0  0  0  0
108109  1  0  0  0  0
108218  1  0  0  0  0
109219  1  0  0  0  0
110111  1  0  0  0  0
111112  2  0  0  0  0
111220  1  0  0  0  0
M  CHG  1  36   1
M  CHG  1  52   1
M  CHG  1  74   1
M  END
>  <Compound ID>
3220

>  <Uniprot>
P10415

>  <Target>
BCL2

>  <E3 ligase>
VHL

>  <Name>
753a

>  <Article DOI>
10.1038/s41467-021-27210-x

>  <Molecular Weight>
1641.5229

>  <Exact Mass>
1639.6519

>  <XLogP3>
12.31

>  <Heavy Atom Count>
112

>  <Ring Count>
11

>  <Hydrogen Bond Acceptor Count>
19

>  <Hydrogen Bond Donor Count>
5

>  <Rotatable Bond Count>
31

>  <Topological Polar Surface Area>
263.54001

>  <Molecular Formula>
C82H105ClF3N11O11S4

>  <InChI>
InChI=1S/C82H105ClF3N11O11S4/c1-56(58-18-20-60(21-19-58)75-57(2)87-55-110-75)88-78(102)71-48-66(98)52-97(71)79(103)76(80(3,4)5)90-73(99)16-12-7-8-13-17-74(100)96-42-38-94(39-43-96)54-81(6)34-32-69(59-22-26-63(83)27-23-59)62(50-81)51-93-36-40-95(41-37-93)65-28-24-61(25-29-65)77(101)91-112(106,107)68-30-31-70(72(49-68)111(104,105)82(84,85)86)89-64(33-35-92-44-46-108-47-45-92)53-109-67-14-10-9-11-15-67/h9-11,14-15,18-31,49,55-56,64,66,71,76,89,98H,7-8,12-13,16-17,32-48,50-54H2,1-6H3,(H,88,102)(H,90,99)(H,91,101)/t56-,64+,66+,71-,76+,81-/m0/s1

>  <InChI Key>
KQEMZZJSHJCPSI-UQSQCHHSSA-N

>  <Ki (nM, Protac to Target)>
1.3200001

>  <Assay (Protac to Target, Ki)>
Ki was tested by AlphaScreen assay

$$$$
3221
  MOE2018           3D

220230  0  0  1  0  0  0  0  0999 V2000
   17.7080  -36.2020   -4.0880 C   0  0  0  0  0  0  0  0  0  0  0  0
   16.3280  -35.6540   -4.3640 C   0  0  0  0  0  0  0  0  0  0  0  0
   15.6280  -34.8180   -3.5310 C   0  0  0  0  0  0  0  0  0  0  0  0
   16.0230  -34.2490   -2.2490 C   0  0  0  0  0  0  0  0  0  0  0  0
   17.2560  -33.6050   -2.0960 C   0  0  0  0  0  0  0  0  0  0  0  0
   17.6330  -33.0700   -0.8690 C   0  0  0  0  0  0  0  0  0  0  0  0
   16.7820  -33.1540    0.2340 C   0  0  0  0  0  0  0  0  0  0  0  0
   17.2320  -32.5730    1.5680 C   0  0  2  0  0  0  0  0  0  0  0  0
   17.5300  -33.7390    2.5150 C   0  0  0  0  0  0  0  0  0  0  0  0
   16.1430  -31.8310    2.1730 N   0  0  0  0  0  0  0  0  0  0  0  0
   15.5950  -30.6920    1.7550 C   0  0  0  0  0  0  0  0  0  0  0  0
   14.7650  -30.1780    2.4940 O   0  0  0  0  0  0  0  0  0  0  0  0
   16.0280  -30.0050    0.4200 C   0  0  2  0  0  0  0  0  0  0  0  0
   17.3800  -29.2910    0.5840 C   0  0  0  0  0  0  0  0  0  0  0  0
   17.2740  -28.0340   -0.2730 C   0  0  1  0  0  0  0  0  0  0  0  0
   17.6130  -28.3600   -1.6060 O   0  0  0  0  0  0  0  0  0  0  0  0
   15.7930  -27.6810   -0.1520 C   0  0  0  0  0  0  0  0  0  0  0  0
   15.1110  -28.9640   -0.0670 N   0  0  0  0  0  0  0  0  0  0  0  0
   13.7900  -29.0950   -0.3060 C   0  0  0  0  0  0  0  0  0  0  0  0
   13.1060  -28.0840   -0.4680 O   0  0  0  0  0  0  0  0  0  0  0  0
   13.1290  -30.5040   -0.4290 C   0  0  1  0  0  0  0  0  0  0  0  0
   11.9870  -30.6150    0.4850 N   0  0  0  0  0  0  0  0  0  0  0  0
   11.7810  -31.6550    1.2890 C   0  0  0  0  0  0  0  0  0  0  0  0
   12.4840  -32.6590    1.2620 O   0  0  0  0  0  0  0  0  0  0  0  0
   10.5860  -31.5770    2.2300 C   0  0  0  0  0  0  0  0  0  0  0  0
    9.2460  -31.6570    1.4780 C   0  0  0  0  0  0  0  0  0  0  0  0
    8.0640  -31.6910    2.4560 C   0  0  0  0  0  0  0  0  0  0  0  0
    6.7340  -31.6890    1.6920 C   0  0  0  0  0  0  0  0  0  0  0  0
    5.5530  -31.7890    2.6680 C   0  0  0  0  0  0  0  0  0  0  0  0
    4.2060  -31.6850    1.9270 C   0  0  0  0  0  0  0  0  0  0  0  0
    2.9760  -31.7840    2.8440 C   0  0  0  0  0  0  0  0  0  0  0  0
    3.1270  -32.0930    4.0190 O   0  0  0  0  0  0  0  0  0  0  0  0
    1.7390  -31.5260    2.3570 N   0  0  0  0  0  0  0  0  0  0  0  0
    1.4970  -31.0610    0.9620 C   0  0  0  0  0  0  0  0  0  0  0  0
    0.1710  -31.6920    0.4650 C   0  0  0  0  0  0  0  0  0  0  0  0
   -0.9180  -31.2970    1.4140 N   0  3  0  0  0  0  0  0  0  0  0  0
   -2.2200  -31.7420    0.8550 C   0  0  0  0  0  0  0  0  0  0  0  0
   -3.1370  -30.4910    0.6410 C   0  0  2  0  0  0  0  0  0  0  0  0
   -4.3780  -30.9840   -0.1350 C   0  0  0  0  0  0  0  0  0  0  0  0
   -2.4480  -29.4280   -0.2820 C   0  0  0  0  0  0  0  0  0  0  0  0
   -1.8990  -28.2340    0.5300 C   0  0  0  0  0  0  0  0  0  0  0  0
   -3.1140  -27.6360    1.2110 C   0  0  0  0  0  0  0  0  0  0  0  0
   -3.2840  -26.1910    1.1030 C   0  0  0  0  0  0  0  0  0  0  0  0
   -3.2570  -25.3810    2.2470 C   0  0  0  0  0  0  0  0  0  0  0  0
   -3.4520  -24.0080    2.1480 C   0  0  0  0  0  0  0  0  0  0  0  0
   -3.6660  -23.4240    0.8990 C   0  0  0  0  0  0  0  0  0  0  0  0
   -3.9240  -21.7150    0.7750 Cl  0  0  0  0  0  0  0  0  0  0  0  0
   -3.6680  -24.2150   -0.2500 C   0  0  0  0  0  0  0  0  0  0  0  0
   -3.4730  -25.5870   -0.1470 C   0  0  0  0  0  0  0  0  0  0  0  0
   -3.9620  -28.4470    1.8840 C   0  0  0  0  0  0  0  0  0  0  0  0
   -5.2000  -27.9230    2.5970 C   0  0  0  0  0  0  0  0  0  0  0  0
   -6.3200  -28.2290    1.7000 N   0  3  0  0  0  0  0  0  0  0  0  0
   -6.3010  -27.2190    0.5780 C   0  0  0  0  0  0  0  0  0  0  0  0
   -7.4930  -27.4800   -0.3780 C   0  0  0  0  0  0  0  0  0  0  0  0
   -8.7160  -27.3510    0.4440 N   0  0  0  0  0  0  0  0  0  0  0  0
   -9.9100  -26.9130   -0.1440 C   0  0  0  0  0  0  0  0  0  0  0  0
  -10.1710  -27.1110   -1.5060 C   0  0  0  0  0  0  0  0  0  0  0  0
  -11.3490  -26.6290   -2.0620 C   0  0  0  0  0  0  0  0  0  0  0  0
  -12.2920  -25.9430   -1.2730 C   0  0  0  0  0  0  0  0  0  0  0  0
  -13.5320  -25.4160   -1.8410 C   0  0  0  0  0  0  0  0  0  0  0  0
  -14.1260  -24.4630   -1.3680 O   0  0  0  0  0  0  0  0  0  0  0  0
  -14.0710  -26.0480   -2.9100 N   0  0  0  0  0  0  0  0  0  0  0  0
  -15.5160  -25.5700   -3.5500 S   0  0  0  0  0  0  0  0  0  0  0  0
  -15.7840  -26.4330   -4.6380 O   0  0  0  0  0  0  0  0  0  0  0  0
  -15.4770  -24.1860   -3.8460 O   0  0  0  0  0  0  0  0  0  0  0  0
  -16.7580  -25.8660   -2.2640 C   0  0  0  0  0  0  0  0  0  0  0  0
  -17.1080  -24.8540   -1.3680 C   0  0  0  0  0  0  0  0  0  0  0  0
  -18.0950  -25.0580   -0.4190 C   0  0  0  0  0  0  0  0  0  0  0  0
  -18.7840  -26.2710   -0.3650 C   0  0  0  0  0  0  0  0  0  0  0  0
  -19.8060  -26.3390    0.5960 N   0  0  0  0  0  0  0  0  0  0  0  0
  -21.1910  -26.0210    0.1990 C   0  0  2  0  0  0  0  0  0  0  0  0
  -21.2480  -24.5380   -0.2160 C   0  0  0  0  0  0  0  0  0  0  0  0
  -22.6460  -24.2670   -0.7920 C   0  0  0  0  0  0  0  0  0  0  0  0
  -22.6390  -22.8450   -1.1880 N   0  3  0  0  0  0  0  0  0  0  0  0
  -24.0620  -22.3750   -1.2300 C   0  0  0  0  0  0  0  0  0  0  0  0
  -24.0550  -20.8810   -1.6320 C   0  0  0  0  0  0  0  0  0  0  0  0
  -23.4520  -20.8020   -2.9210 O   0  0  0  0  0  0  0  0  0  0  0  0
  -22.0910  -21.2260   -2.9660 C   0  0  0  0  0  0  0  0  0  0  0  0
  -22.0700  -22.7230   -2.5770 C   0  0  0  0  0  0  0  0  0  0  0  0
  -22.0650  -26.3080    1.4370 C   0  0  0  0  0  0  0  0  0  0  0  0
  -21.9840  -28.1150    1.7000 S   0  0  0  0  0  0  0  0  0  0  0  0
  -23.4370  -28.4990    2.5920 C   0  0  0  0  0  0  0  0  0  0  0  0
  -24.0480  -29.7400    2.3830 C   0  0  0  0  0  0  0  0  0  0  0  0
  -25.2150  -30.0690    3.0630 C   0  0  0  0  0  0  0  0  0  0  0  0
  -25.7780  -29.1690    3.9630 C   0  0  0  0  0  0  0  0  0  0  0  0
  -25.1670  -27.9380    4.1860 C   0  0  0  0  0  0  0  0  0  0  0  0
  -24.0000  -27.6020    3.5100 C   0  0  0  0  0  0  0  0  0  0  0  0
  -18.4300  -27.3270   -1.2300 C   0  0  0  0  0  0  0  0  0  0  0  0
  -19.2290  -28.9510   -1.2010 S   0  0  0  0  0  0  0  0  0  0  0  0
  -20.6420  -28.7640   -1.1870 O   0  0  0  0  0  0  0  0  0  0  0  0
  -18.7340  -29.7030   -2.3060 O   0  0  0  0  0  0  0  0  0  0  0  0
  -18.6200  -29.7190    0.4240 C   0  0  0  0  0  0  0  0  0  0  0  0
  -18.8950  -28.9810    1.5240 F   0  0  0  0  0  0  0  0  0  0  0  0
  -19.1250  -30.9440    0.6960 F   0  0  0  0  0  0  0  0  0  0  0  0
  -17.2740  -29.8840    0.4710 F   0  0  0  0  0  0  0  0  0  0  0  0
  -17.4260  -27.0920   -2.1780 C   0  0  0  0  0  0  0  0  0  0  0  0
  -12.0130  -25.7570    0.0920 C   0  0  0  0  0  0  0  0  0  0  0  0
  -10.8400  -26.2390    0.6530 C   0  0  0  0  0  0  0  0  0  0  0  0
   -8.8150  -28.3030    1.5740 C   0  0  0  0  0  0  0  0  0  0  0  0
   -7.5900  -28.0260    2.4850 C   0  0  0  0  0  0  0  0  0  0  0  0
   -3.6260  -29.9280    2.0240 C   0  0  0  0  0  0  0  0  0  0  0  0
   -0.6540  -32.0310    2.6910 C   0  0  0  0  0  0  0  0  0  0  0  0
    0.6100  -31.4130    3.3320 C   0  0  0  0  0  0  0  0  0  0  0  0
   12.7200  -30.8670   -1.8980 C   0  0  0  0  0  0  0  0  0  0  0  0
   13.9690  -30.8800   -2.8020 C   0  0  0  0  0  0  0  0  0  0  0  0
   11.6870  -29.9060   -2.5230 C   0  0  0  0  0  0  0  0  0  0  0  0
   12.0990  -32.2770   -1.9720 C   0  0  0  0  0  0  0  0  0  0  0  0
   15.5430  -33.7820    0.0820 C   0  0  0  0  0  0  0  0  0  0  0  0
   15.1730  -34.3260   -1.1410 C   0  0  0  0  0  0  0  0  0  0  0  0
   14.0970  -34.4680   -4.2210 S   0  0  0  0  0  0  0  0  0  0  0  0
   14.5160  -35.4430   -5.5730 C   0  0  0  0  0  0  0  0  0  0  0  0
   15.6950  -35.9930   -5.5160 N   0  0  0  0  0  0  0  0  0  0  0  0
   18.0610  -35.8290   -3.1270 H   0  0  0  0  0  0  0  0  0  0  0  0
   18.3900  -35.8810   -4.8750 H   0  0  0  0  0  0  0  0  0  0  0  0
   17.6680  -37.2910   -4.0630 H   0  0  0  0  0  0  0  0  0  0  0  0
   17.9230  -33.5220   -2.9410 H   0  0  0  0  0  0  0  0  0  0  0  0
   18.5930  -32.5850   -0.7690 H   0  0  0  0  0  0  0  0  0  0  0  0
   18.0980  -31.9310    1.4060 H   0  0  0  0  0  0  0  0  0  0  0  0
   16.6320  -34.3440    2.6400 H   0  0  0  0  0  0  0  0  0  0  0  0
   17.8430  -33.3490    3.4840 H   0  0  0  0  0  0  0  0  0  0  0  0
   18.3270  -34.3530    2.0960 H   0  0  0  0  0  0  0  0  0  0  0  0
   15.7520  -32.2270    3.0160 H   0  0  0  0  0  0  0  0  0  0  0  0
   16.0520  -30.8310   -0.2900 H   0  0  0  0  0  0  0  0  0  0  0  0
   18.1930  -29.9260    0.2320 H   0  0  0  0  0  0  0  0  0  0  0  0
   17.5500  -29.0290    1.6280 H   0  0  0  0  0  0  0  0  0  0  0  0
   17.9300  -27.2160    0.0270 H   0  0  0  0  0  0  0  0  0  0  0  0
   17.0420  -29.0800   -1.8830 H   0  0  0  0  0  0  0  0  0  0  0  0
   15.4580  -27.1250   -1.0280 H   0  0  0  0  0  0  0  0  0  0  0  0
   15.6110  -27.0890    0.7450 H   0  0  0  0  0  0  0  0  0  0  0  0
   13.8850  -31.2340   -0.1400 H   0  0  0  0  0  0  0  0  0  0  0  0
   11.3180  -29.8580    0.5050 H   0  0  0  0  0  0  0  0  0  0  0  0
   10.6420  -32.4050    2.9370 H   0  0  0  0  0  0  0  0  0  0  0  0
   10.6280  -30.6330    2.7730 H   0  0  0  0  0  0  0  0  0  0  0  0
    9.1480  -30.7850    0.8320 H   0  0  0  0  0  0  0  0  0  0  0  0
    9.2320  -32.5620    0.8710 H   0  0  0  0  0  0  0  0  0  0  0  0
    8.1270  -32.5940    3.0640 H   0  0  0  0  0  0  0  0  0  0  0  0
    8.1080  -30.8140    3.1020 H   0  0  0  0  0  0  0  0  0  0  0  0
    6.7100  -32.5400    1.0110 H   0  0  0  0  0  0  0  0  0  0  0  0
    6.6500  -30.7650    1.1210 H   0  0  0  0  0  0  0  0  0  0  0  0
    5.6230  -30.9790    3.3940 H   0  0  0  0  0  0  0  0  0  0  0  0
    5.6000  -32.7470    3.1860 H   0  0  0  0  0  0  0  0  0  0  0  0
    4.1540  -32.4920    1.1960 H   0  0  0  0  0  0  0  0  0  0  0  0
    4.1720  -30.7250    1.4110 H   0  0  0  0  0  0  0  0  0  0  0  0
    1.4180  -29.9740    0.9440 H   0  0  0  0  0  0  0  0  0  0  0  0
    2.3190  -31.3760    0.3200 H   0  0  0  0  0  0  0  0  0  0  0  0
    0.2650  -32.7780    0.4420 H   0  0  0  0  0  0  0  0  0  0  0  0
   -0.0600  -31.3260   -0.5350 H   0  0  0  0  0  0  0  0  0  0  0  0
   -0.9440  -30.2980    1.5630 H   0  0  0  0  0  0  0  0  0  0  0  0
   -2.0560  -32.2430   -0.0990 H   0  0  0  0  0  0  0  0  0  0  0  0
   -2.6990  -32.4320    1.5500 H   0  0  0  0  0  0  0  0  0  0  0  0
   -5.0530  -30.1460   -0.3110 H   0  0  0  0  0  0  0  0  0  0  0  0
   -4.8920  -31.7480    0.4490 H   0  0  0  0  0  0  0  0  0  0  0  0
   -4.0650  -31.4060   -1.0900 H   0  0  0  0  0  0  0  0  0  0  0  0
   -1.6230  -29.9030   -0.8130 H   0  0  0  0  0  0  0  0  0  0  0  0
   -3.1790  -29.0590   -1.0020 H   0  0  0  0  0  0  0  0  0  0  0  0
   -1.4310  -27.5040   -0.1300 H   0  0  0  0  0  0  0  0  0  0  0  0
   -1.1730  -28.5740    1.2690 H   0  0  0  0  0  0  0  0  0  0  0  0
   -3.0830  -25.8280    3.2150 H   0  0  0  0  0  0  0  0  0  0  0  0
   -3.4380  -23.3940    3.0370 H   0  0  0  0  0  0  0  0  0  0  0  0
   -3.8210  -23.7620   -1.2180 H   0  0  0  0  0  0  0  0  0  0  0  0
   -3.4670  -26.1940   -1.0400 H   0  0  0  0  0  0  0  0  0  0  0  0
   -5.1220  -26.8480    2.7580 H   0  0  0  0  0  0  0  0  0  0  0  0
   -5.3300  -28.4250    3.5560 H   0  0  0  0  0  0  0  0  0  0  0  0
   -6.2580  -29.1700    1.3380 H   0  0  0  0  0  0  0  0  0  0  0  0
   -6.3820  -26.2140    0.9930 H   0  0  0  0  0  0  0  0  0  0  0  0
   -5.3660  -27.3090    0.0250 H   0  0  0  0  0  0  0  0  0  0  0  0
   -7.4260  -28.4820   -0.8010 H   0  0  0  0  0  0  0  0  0  0  0  0
   -7.5000  -26.7450   -1.1830 H   0  0  0  0  0  0  0  0  0  0  0  0
   -9.4580  -27.6370   -2.1230 H   0  0  0  0  0  0  0  0  0  0  0  0
  -11.5440  -26.7820   -3.1130 H   0  0  0  0  0  0  0  0  0  0  0  0
  -13.5800  -26.8270   -3.3240 H   0  0  0  0  0  0  0  0  0  0  0  0
  -16.6030  -23.9010   -1.4160 H   0  0  0  0  0  0  0  0  0  0  0  0
  -18.3340  -24.2740    0.2840 H   0  0  0  0  0  0  0  0  0  0  0  0
  -19.5950  -26.6030    1.5480 H   0  0  0  0  0  0  0  0  0  0  0  0
  -21.5440  -26.6120   -0.6460 H   0  0  0  0  0  0  0  0  0  0  0  0
  -21.0750  -23.9030    0.6530 H   0  0  0  0  0  0  0  0  0  0  0  0
  -20.4890  -24.3350   -0.9720 H   0  0  0  0  0  0  0  0  0  0  0  0
  -23.4110  -24.4490   -0.0370 H   0  0  0  0  0  0  0  0  0  0  0  0
  -22.8310  -24.9030   -1.6580 H   0  0  0  0  0  0  0  0  0  0  0  0
  -22.0890  -22.3020   -0.5370 H   0  0  0  0  0  0  0  0  0  0  0  0
  -24.6220  -22.9540   -1.9640 H   0  0  0  0  0  0  0  0  0  0  0  0
  -24.5200  -22.4930   -0.2480 H   0  0  0  0  0  0  0  0  0  0  0  0
  -23.4770  -20.3020   -0.9120 H   0  0  0  0  0  0  0  0  0  0  0  0
  -25.0750  -20.4990   -1.6710 H   0  0  0  0  0  0  0  0  0  0  0  0
  -21.6910  -21.0950   -3.9720 H   0  0  0  0  0  0  0  0  0  0  0  0
  -21.4950  -20.6470   -2.2600 H   0  0  0  0  0  0  0  0  0  0  0  0
  -21.0460  -23.0960   -2.5920 H   0  0  0  0  0  0  0  0  0  0  0  0
  -22.6760  -23.2970   -3.2780 H   0  0  0  0  0  0  0  0  0  0  0  0
  -23.0940  -25.9970    1.2550 H   0  0  0  0  0  0  0  0  0  0  0  0
  -21.6750  -25.7800    2.3070 H   0  0  0  0  0  0  0  0  0  0  0  0
  -23.6120  -30.4450    1.6910 H   0  0  0  0  0  0  0  0  0  0  0  0
  -25.6860  -31.0260    2.8920 H   0  0  0  0  0  0  0  0  0  0  0  0
  -26.6870  -29.4250    4.4870 H   0  0  0  0  0  0  0  0  0  0  0  0
  -25.6020  -27.2410    4.8870 H   0  0  0  0  0  0  0  0  0  0  0  0
  -23.5260  -26.6490    3.6920 H   0  0  0  0  0  0  0  0  0  0  0  0
  -17.1590  -27.8820   -2.8640 H   0  0  0  0  0  0  0  0  0  0  0  0
  -12.7230  -25.2310    0.7130 H   0  0  0  0  0  0  0  0  0  0  0  0
  -10.6450  -26.0940    1.7050 H   0  0  0  0  0  0  0  0  0  0  0  0
   -9.7410  -28.1390    2.1260 H   0  0  0  0  0  0  0  0  0  0  0  0
   -8.7880  -29.3290    1.2070 H   0  0  0  0  0  0  0  0  0  0  0  0
   -7.6060  -28.7110    3.3330 H   0  0  0  0  0  0  0  0  0  0  0  0
   -7.6320  -26.9990    2.8470 H   0  0  0  0  0  0  0  0  0  0  0  0
   -2.8370  -30.0520    2.7660 H   0  0  0  0  0  0  0  0  0  0  0  0
   -4.5140  -30.4730    2.3440 H   0  0  0  0  0  0  0  0  0  0  0  0
   -1.5040  -31.9220    3.3650 H   0  0  0  0  0  0  0  0  0  0  0  0
   -0.4870  -33.0880    2.4850 H   0  0  0  0  0  0  0  0  0  0  0  0
    0.8590  -31.9510    4.2470 H   0  0  0  0  0  0  0  0  0  0  0  0
    0.4290  -30.3640    3.5650 H   0  0  0  0  0  0  0  0  0  0  0  0
   13.6770  -31.1330   -3.8210 H   0  0  0  0  0  0  0  0  0  0  0  0
   14.6770  -31.6210   -2.4320 H   0  0  0  0  0  0  0  0  0  0  0  0
   14.4350  -29.8950   -2.7920 H   0  0  0  0  0  0  0  0  0  0  0  0
   11.4590  -30.2280   -3.5390 H   0  0  0  0  0  0  0  0  0  0  0  0
   12.0970  -28.8960   -2.5460 H   0  0  0  0  0  0  0  0  0  0  0  0
   10.7750  -29.9140   -1.9260 H   0  0  0  0  0  0  0  0  0  0  0  0
   11.8260  -32.5000   -3.0030 H   0  0  0  0  0  0  0  0  0  0  0  0
   11.2090  -32.3160   -1.3440 H   0  0  0  0  0  0  0  0  0  0  0  0
   12.8230  -33.0120   -1.6210 H   0  0  0  0  0  0  0  0  0  0  0  0
   14.8680  -33.8450    0.9220 H   0  0  0  0  0  0  0  0  0  0  0  0
   14.2150  -34.8160   -1.2380 H   0  0  0  0  0  0  0  0  0  0  0  0
   13.8490  -35.5890   -6.4100 H   0  0  0  0  0  0  0  0  0  0  0  0
  1  2  1  0  0  0  0
  1113  1  0  0  0  0
  1114  1  0  0  0  0
  1115  1  0  0  0  0
  2  3  2  0  0  0  0
  2112  1  0  0  0  0
  3  4  1  0  0  0  0
  3110  1  0  0  0  0
  4  5  1  0  0  0  0
  4109  2  0  0  0  0
  5  6  2  0  0  0  0
  5116  1  0  0  0  0
  6  7  1  0  0  0  0
  6117  1  0  0  0  0
  7  8  1  0  0  0  0
  7108  2  0  0  0  0
  8  9  1  0  0  0  0
  8 10  1  0  0  0  0
  8118  1  0  0  0  0
  9119  1  0  0  0  0
  9120  1  0  0  0  0
  9121  1  0  0  0  0
 10 11  1  0  0  0  0
 10122  1  0  0  0  0
 11 12  2  0  0  0  0
 11 13  1  0  0  0  0
 13 14  1  0  0  0  0
 13 18  1  0  0  0  0
 13123  1  0  0  0  0
 14 15  1  0  0  0  0
 14124  1  0  0  0  0
 14125  1  0  0  0  0
 15 16  1  0  0  0  0
 15 17  1  0  0  0  0
 15126  1  0  0  0  0
 16127  1  0  0  0  0
 17 18  1  0  0  0  0
 17128  1  0  0  0  0
 17129  1  0  0  0  0
 18 19  1  0  0  0  0
 19 20  2  0  0  0  0
 19 21  1  0  0  0  0
 21 22  1  0  0  0  0
 21104  1  0  0  0  0
 21130  1  0  0  0  0
 22 23  1  0  0  0  0
 22131  1  0  0  0  0
 23 24  2  0  0  0  0
 23 25  1  0  0  0  0
 25 26  1  0  0  0  0
 25132  1  0  0  0  0
 25133  1  0  0  0  0
 26 27  1  0  0  0  0
 26134  1  0  0  0  0
 26135  1  0  0  0  0
 27 28  1  0  0  0  0
 27136  1  0  0  0  0
 27137  1  0  0  0  0
 28 29  1  0  0  0  0
 28138  1  0  0  0  0
 28139  1  0  0  0  0
 29 30  1  0  0  0  0
 29140  1  0  0  0  0
 29141  1  0  0  0  0
 30 31  1  0  0  0  0
 30142  1  0  0  0  0
 30143  1  0  0  0  0
 31 32  2  0  0  0  0
 31 33  1  0  0  0  0
 33 34  1  0  0  0  0
 33103  1  0  0  0  0
 34 35  1  0  0  0  0
 34144  1  0  0  0  0
 34145  1  0  0  0  0
 35 36  1  0  0  0  0
 35146  1  0  0  0  0
 35147  1  0  0  0  0
 36 37  1  0  0  0  0
 36102  1  0  0  0  0
 36148  1  0  0  0  0
 37 38  1  0  0  0  0
 37149  1  0  0  0  0
 37150  1  0  0  0  0
 38 39  1  0  0  0  0
 38 40  1  0  0  0  0
 38101  1  0  0  0  0
 39151  1  0  0  0  0
 39152  1  0  0  0  0
 39153  1  0  0  0  0
 40 41  1  0  0  0  0
 40154  1  0  0  0  0
 40155  1  0  0  0  0
 41 42  1  0  0  0  0
 41156  1  0  0  0  0
 41157  1  0  0  0  0
 42 43  1  0  0  0  0
 42 50  2  0  0  0  0
 43 44  1  0  0  0  0
 43 49  2  0  0  0  0
 44 45  2  0  0  0  0
 44158  1  0  0  0  0
 45 46  1  0  0  0  0
 45159  1  0  0  0  0
 46 47  1  0  0  0  0
 46 48  2  0  0  0  0
 48 49  1  0  0  0  0
 48160  1  0  0  0  0
 49161  1  0  0  0  0
 50 51  1  0  0  0  0
 50101  1  0  0  0  0
 51 52  1  0  0  0  0
 51162  1  0  0  0  0
 51163  1  0  0  0  0
 52 53  1  0  0  0  0
 52100  1  0  0  0  0
 52164  1  0  0  0  0
 53 54  1  0  0  0  0
 53165  1  0  0  0  0
 53166  1  0  0  0  0
 54 55  1  0  0  0  0
 54167  1  0  0  0  0
 54168  1  0  0  0  0
 55 56  1  0  0  0  0
 55 99  1  0  0  0  0
 56 57  1  0  0  0  0
 56 98  2  0  0  0  0
 57 58  2  0  0  0  0
 57169  1  0  0  0  0
 58 59  1  0  0  0  0
 58170  1  0  0  0  0
 59 60  1  0  0  0  0
 59 97  2  0  0  0  0
 60 61  2  0  0  0  0
 60 62  1  0  0  0  0
 62 63  1  0  0  0  0
 62171  1  0  0  0  0
 63 64  2  0  0  0  0
 63 65  2  0  0  0  0
 63 66  1  0  0  0  0
 66 67  1  0  0  0  0
 66 96  2  0  0  0  0
 67 68  2  0  0  0  0
 67172  1  0  0  0  0
 68 69  1  0  0  0  0
 68173  1  0  0  0  0
 69 70  1  0  0  0  0
 69 88  2  0  0  0  0
 70 71  1  0  0  0  0
 70174  1  0  0  0  0
 71 72  1  0  0  0  0
 71 80  1  0  0  0  0
 71175  1  0  0  0  0
 72 73  1  0  0  0  0
 72176  1  0  0  0  0
 72177  1  0  0  0  0
 73 74  1  0  0  0  0
 73178  1  0  0  0  0
 73179  1  0  0  0  0
 74 75  1  0  0  0  0
 74 79  1  0  0  0  0
 74180  1  0  0  0  0
 75 76  1  0  0  0  0
 75181  1  0  0  0  0
 75182  1  0  0  0  0
 76 77  1  0  0  0  0
 76183  1  0  0  0  0
 76184  1  0  0  0  0
 77 78  1  0  0  0  0
 78 79  1  0  0  0  0
 78185  1  0  0  0  0
 78186  1  0  0  0  0
 79187  1  0  0  0  0
 79188  1  0  0  0  0
 80 81  1  0  0  0  0
 80189  1  0  0  0  0
 80190  1  0  0  0  0
 81 82  1  0  0  0  0
 82 83  1  0  0  0  0
 82 87  2  0  0  0  0
 83 84  2  0  0  0  0
 83191  1  0  0  0  0
 84 85  1  0  0  0  0
 84192  1  0  0  0  0
 85 86  2  0  0  0  0
 85193  1  0  0  0  0
 86 87  1  0  0  0  0
 86194  1  0  0  0  0
 87195  1  0  0  0  0
 88 89  1  0  0  0  0
 88 96  1  0  0  0  0
 89 90  2  0  0  0  0
 89 91  2  0  0  0  0
 89 92  1  0  0  0  0
 92 93  1  0  0  0  0
 92 94  1  0  0  0  0
 92 95  1  0  0  0  0
 96196  1  0  0  0  0
 97 98  1  0  0  0  0
 97197  1  0  0  0  0
 98198  1  0  0  0  0
 99100  1  0  0  0  0
 99199  1  0  0  0  0
 99200  1  0  0  0  0
100201  1  0  0  0  0
100202  1  0  0  0  0
101203  1  0  0  0  0
101204  1  0  0  0  0
102103  1  0  0  0  0
102205  1  0  0  0  0
102206  1  0  0  0  0
103207  1  0  0  0  0
103208  1  0  0  0  0
104105  1  0  0  0  0
104106  1  0  0  0  0
104107  1  0  0  0  0
105209  1  0  0  0  0
105210  1  0  0  0  0
105211  1  0  0  0  0
106212  1  0  0  0  0
106213  1  0  0  0  0
106214  1  0  0  0  0
107215  1  0  0  0  0
107216  1  0  0  0  0
107217  1  0  0  0  0
108109  1  0  0  0  0
108218  1  0  0  0  0
109219  1  0  0  0  0
110111  1  0  0  0  0
111112  2  0  0  0  0
111220  1  0  0  0  0
M  CHG  1  36   1
M  CHG  1  52   1
M  CHG  1  74   1
M  END
>  <Compound ID>
3221

>  <Uniprot>
P10415

>  <Target>
BCL2

>  <E3 ligase>
VHL

>  <Name>
753b

>  <Assay (DC50/Dmax)>
Degradation of BCL2 in 293T cells after 16 h treatment

>  <Article DOI>
10.1038/s41467-021-27210-x

>  <Molecular Weight>
1641.5229

>  <Exact Mass>
1639.6519

>  <XLogP3>
12.31

>  <Heavy Atom Count>
112

>  <Ring Count>
11

>  <Hydrogen Bond Acceptor Count>
19

>  <Hydrogen Bond Donor Count>
5

>  <Rotatable Bond Count>
31

>  <Topological Polar Surface Area>
263.54001

>  <Molecular Formula>
C82H105ClF3N11O11S4

>  <InChI>
InChI=1S/C82H105ClF3N11O11S4/c1-56(58-18-20-60(21-19-58)75-57(2)87-55-110-75)88-78(102)71-48-66(98)52-97(71)79(103)76(80(3,4)5)90-73(99)16-12-7-8-13-17-74(100)96-42-38-94(39-43-96)54-81(6)34-32-69(59-22-26-63(83)27-23-59)62(50-81)51-93-36-40-95(41-37-93)65-28-24-61(25-29-65)77(101)91-112(106,107)68-30-31-70(72(49-68)111(104,105)82(84,85)86)89-64(33-35-92-44-46-108-47-45-92)53-109-67-14-10-9-11-15-67/h9-11,14-15,18-31,49,55-56,64,66,71,76,89,98H,7-8,12-13,16-17,32-48,50-54H2,1-6H3,(H,88,102)(H,90,99)(H,91,101)/t56-,64+,66+,71-,76+,81+/m0/s1

>  <InChI Key>
KQEMZZJSHJCPSI-RYFXIQSLSA-N

>  <DC50 (nM)>
48

>  <Ki (nM, Protac to Target)>
1.054

>  <Assay (Protac to Target, Ki)>
Ki was tested by AlphaScreen assay

$$$$
