642
  MOE2018           3D

163172  0  0  1  0  0  0  0  0999 V2000
  -29.8440  -14.9540    2.5850 C   0  0  0  0  0  0  0  0  0  0  0  0
  -29.6790  -13.7880    1.5940 C   0  0  0  0  0  0  0  0  0  0  0  0
  -28.5380  -14.1810    0.6300 C   0  0  0  0  0  0  0  0  0  0  0  0
  -31.0380  -13.5800    0.8970 C   0  0  0  0  0  0  0  0  0  0  0  0
  -30.9140  -12.4960   -0.1930 C   0  0  0  0  0  0  0  0  0  0  0  0
  -30.1730  -11.2730    0.3380 C   0  0  0  0  0  0  0  0  0  0  0  0
  -30.3180  -10.0820   -0.4930 C   0  0  0  0  0  0  0  0  0  0  0  0
  -30.9210   -8.9240    0.0170 C   0  0  0  0  0  0  0  0  0  0  0  0
  -31.0340   -7.7800   -0.7640 C   0  0  0  0  0  0  0  0  0  0  0  0
  -30.5560   -7.7820   -2.0750 C   0  0  0  0  0  0  0  0  0  0  0  0
  -30.6790   -6.3520   -3.0440 Cl  0  0  0  0  0  0  0  0  0  0  0  0
  -29.9790   -8.9370   -2.6050 C   0  0  0  0  0  0  0  0  0  0  0  0
  -29.8680  -10.0790   -1.8210 C   0  0  0  0  0  0  0  0  0  0  0  0
  -29.4200  -11.2950    1.4680 C   0  0  0  0  0  0  0  0  0  0  0  0
  -28.6440  -10.0840    1.9460 C   0  0  0  0  0  0  0  0  0  0  0  0
  -27.2660  -10.4090    1.5760 N   0  3  0  0  0  0  0  0  0  0  0  0
  -26.3400   -9.5340    2.3680 C   0  0  0  0  0  0  0  0  0  0  0  0
  -24.8740   -9.8940    2.0030 C   0  0  0  0  0  0  0  0  0  0  0  0
  -24.7250   -9.6800    0.5420 N   0  0  0  0  0  0  0  0  0  0  0  0
  -23.4140   -9.4780    0.0930 C   0  0  0  0  0  0  0  0  0  0  0  0
  -22.7980  -10.3710   -0.7940 C   0  0  0  0  0  0  0  0  0  0  0  0
  -21.5030  -10.1250   -1.2290 C   0  0  0  0  0  0  0  0  0  0  0  0
  -20.7940   -8.9920   -0.7950 C   0  0  0  0  0  0  0  0  0  0  0  0
  -19.4360   -8.7490   -1.2930 C   0  0  0  0  0  0  0  0  0  0  0  0
  -18.8240   -9.4850   -2.0480 O   0  0  0  0  0  0  0  0  0  0  0  0
  -18.7350   -7.6600   -0.9580 N   0  0  0  0  0  0  0  0  0  0  0  0
  -17.7570   -7.9500    0.3320 S   0  0  0  0  0  0  0  0  0  0  0  0
  -18.4650   -8.7490    1.2630 O   0  0  0  0  0  0  0  0  0  0  0  0
  -17.2960   -6.7000    0.8040 O   0  0  0  0  0  0  0  0  0  0  0  0
  -16.3550   -8.8940   -0.3210 C   0  0  0  0  0  0  0  0  0  0  0  0
  -16.2850  -10.2790   -0.1450 C   0  0  0  0  0  0  0  0  0  0  0  0
  -15.2100  -11.0050   -0.6370 C   0  0  0  0  0  0  0  0  0  0  0  0
  -14.1760  -10.3550   -1.3200 C   0  0  0  0  0  0  0  0  0  0  0  0
  -13.0860  -11.0930   -1.8090 N   0  0  0  0  0  0  0  0  0  0  0  0
  -12.5740  -12.2510   -1.0830 C   0  0  2  0  0  0  0  0  0  0  0  0
  -11.0480  -12.0380   -1.0890 C   0  0  0  0  0  0  0  0  0  0  0  0
  -10.4270  -12.7950    0.0940 C   0  0  0  0  0  0  0  0  0  0  0  0
   -8.9860  -12.7920   -0.1990 N   0  3  0  0  0  0  0  0  0  0  0  0
   -8.3580  -11.5810    0.4140 C   0  0  0  0  0  0  0  0  0  0  0  0
   -6.8880  -11.5330   -0.0600 C   0  0  0  0  0  0  0  0  0  0  0  0
   -6.2240  -12.8100    0.3530 N   0  0  0  0  0  0  0  0  0  0  0  0
   -4.9660  -12.7470    0.8480 C   0  0  0  0  0  0  0  0  0  0  0  0
   -4.4780  -11.6710    1.1630 O   0  0  0  0  0  0  0  0  0  0  0  0
   -4.1330  -14.0290    1.0090 C   0  0  0  0  0  0  0  0  0  0  0  0
   -2.6610  -13.7690    1.3860 C   0  0  0  0  0  0  0  0  0  0  0  0
   -1.8520  -15.0660    1.4340 C   0  0  0  0  0  0  0  0  0  0  0  0
   -0.5040  -14.6380    1.7740 N   0  0  0  0  0  0  0  0  0  0  0  0
    0.5900  -15.4360    1.4590 C   0  0  0  0  0  0  0  0  0  0  0  0
    0.5230  -16.8370    1.5160 C   0  0  0  0  0  0  0  0  0  0  0  0
    1.6480  -17.6040    1.2000 C   0  0  0  0  0  0  0  0  0  0  0  0
    2.8480  -16.9900    0.8280 C   0  0  0  0  0  0  0  0  0  0  0  0
    2.9000  -15.5970    0.7800 C   0  0  0  0  0  0  0  0  0  0  0  0
    1.7950  -14.8290    1.0880 C   0  0  0  0  0  0  0  0  0  0  0  0
    2.1560  -13.4480    0.9360 C   0  0  0  0  0  0  0  0  0  0  0  0
    1.4860  -12.4360    1.1100 O   0  0  0  0  0  0  0  0  0  0  0  0
    3.4860  -13.3970    0.5390 N   0  0  0  0  0  0  0  0  0  0  0  0
    4.2520  -12.2040    0.1520 C   0  0  2  0  0  0  0  0  0  0  0  0
    4.4510  -11.3320    1.4190 C   0  0  0  0  0  0  0  0  0  0  0  0
    5.1620  -10.0350    0.9680 C   0  0  0  0  0  0  0  0  0  0  0  0
    4.2570   -9.3260   -0.0220 C   0  0  0  0  0  0  0  0  0  0  0  0
    4.1390   -8.1290   -0.0730 O   0  0  0  0  0  0  0  0  0  0  0  0
    3.5460  -10.0470   -0.9260 N   0  0  0  0  0  0  0  0  0  0  0  0
    3.4920  -11.4070   -0.9230 C   0  0  0  0  0  0  0  0  0  0  0  0
    2.8630  -11.9090   -1.8280 O   0  0  0  0  0  0  0  0  0  0  0  0
    3.9690  -14.6880    0.4390 C   0  0  0  0  0  0  0  0  0  0  0  0
    5.1240  -14.9260    0.1190 O   0  0  0  0  0  0  0  0  0  0  0  0
   -6.9020  -14.0830   -0.0270 C   0  0  0  0  0  0  0  0  0  0  0  0
   -8.3770  -13.9910    0.4440 C   0  0  0  0  0  0  0  0  0  0  0  0
  -13.0550  -13.4900   -1.8710 C   0  0  0  0  0  0  0  0  0  0  0  0
  -12.7100  -14.9770   -0.8520 S   0  0  0  0  0  0  0  0  0  0  0  0
  -11.1720  -15.6950   -1.2890 C   0  0  0  0  0  0  0  0  0  0  0  0
  -10.6380  -16.6660   -0.4330 C   0  0  0  0  0  0  0  0  0  0  0  0
   -9.3990  -17.2380   -0.6990 C   0  0  0  0  0  0  0  0  0  0  0  0
   -8.6780  -16.8520   -1.8250 C   0  0  0  0  0  0  0  0  0  0  0  0
   -9.2090  -15.9010   -2.6920 C   0  0  0  0  0  0  0  0  0  0  0  0
  -10.4500  -15.3280   -2.4350 C   0  0  0  0  0  0  0  0  0  0  0  0
  -14.2360   -8.9660   -1.5340 C   0  0  0  0  0  0  0  0  0  0  0  0
  -12.9560   -8.0860   -2.4590 S   0  0  0  0  0  0  0  0  0  0  0  0
  -12.9750   -6.7230   -2.0510 O   0  0  0  0  0  0  0  0  0  0  0  0
  -11.7040   -8.7600   -2.2810 O   0  0  0  0  0  0  0  0  0  0  0  0
  -13.5460   -8.2450   -4.2560 C   0  0  0  0  0  0  0  0  0  0  0  0
  -14.8290   -7.8470   -4.4440 F   0  0  0  0  0  0  0  0  0  0  0  0
  -12.8260   -7.5270   -5.1480 F   0  0  0  0  0  0  0  0  0  0  0  0
  -13.5130   -9.5120   -4.7330 F   0  0  0  0  0  0  0  0  0  0  0  0
  -15.3160   -8.2530   -1.0020 C   0  0  0  0  0  0  0  0  0  0  0  0
  -21.4260   -8.1110    0.1010 C   0  0  0  0  0  0  0  0  0  0  0  0
  -22.7200   -8.3500    0.5400 C   0  0  0  0  0  0  0  0  0  0  0  0
  -25.6500  -10.4760   -0.3010 C   0  0  0  0  0  0  0  0  0  0  0  0
  -27.0860  -10.0830    0.1210 C   0  0  0  0  0  0  0  0  0  0  0  0
  -29.3240  -12.5130    2.3870 C   0  0  0  0  0  0  0  0  0  0  0  0
  -30.0950  -15.8630    2.0380 H   0  0  0  0  0  0  0  0  0  0  0  0
  -30.6420  -14.7220    3.2900 H   0  0  0  0  0  0  0  0  0  0  0  0
  -28.9110  -15.1030    3.1290 H   0  0  0  0  0  0  0  0  0  0  0  0
  -28.8170  -15.0830    0.0850 H   0  0  0  0  0  0  0  0  0  0  0  0
  -27.6280  -14.3680    1.2010 H   0  0  0  0  0  0  0  0  0  0  0  0
  -28.3630  -13.3690   -0.0760 H   0  0  0  0  0  0  0  0  0  0  0  0
  -31.3560  -14.5170    0.4390 H   0  0  0  0  0  0  0  0  0  0  0  0
  -31.7770  -13.2670    1.6340 H   0  0  0  0  0  0  0  0  0  0  0  0
  -31.9120  -12.1970   -0.5140 H   0  0  0  0  0  0  0  0  0  0  0  0
  -30.3660  -12.9050   -1.0420 H   0  0  0  0  0  0  0  0  0  0  0  0
  -31.3020   -8.9210    1.0280 H   0  0  0  0  0  0  0  0  0  0  0  0
  -31.4910   -6.8900   -0.3570 H   0  0  0  0  0  0  0  0  0  0  0  0
  -29.6190   -8.9430   -3.6230 H   0  0  0  0  0  0  0  0  0  0  0  0
  -29.4310  -10.9740   -2.2390 H   0  0  0  0  0  0  0  0  0  0  0  0
  -28.7410   -9.9570    3.0240 H   0  0  0  0  0  0  0  0  0  0  0  0
  -28.9820   -9.1780    1.4420 H   0  0  0  0  0  0  0  0  0  0  0  0
  -27.0710  -11.3840    1.7550 H   0  0  0  0  0  0  0  0  0  0  0  0
  -26.5310   -8.4880    2.1280 H   0  0  0  0  0  0  0  0  0  0  0  0
  -26.5030   -9.6980    3.4330 H   0  0  0  0  0  0  0  0  0  0  0  0
  -24.6720  -10.9360    2.2510 H   0  0  0  0  0  0  0  0  0  0  0  0
  -24.1840   -9.2500    2.5480 H   0  0  0  0  0  0  0  0  0  0  0  0
  -23.3280  -11.2470   -1.1380 H   0  0  0  0  0  0  0  0  0  0  0  0
  -21.0320  -10.8160   -1.9130 H   0  0  0  0  0  0  0  0  0  0  0  0
  -18.7980   -6.7730   -1.4360 H   0  0  0  0  0  0  0  0  0  0  0  0
  -17.0780  -10.7900    0.3810 H   0  0  0  0  0  0  0  0  0  0  0  0
  -15.1710  -12.0750   -0.4920 H   0  0  0  0  0  0  0  0  0  0  0  0
  -12.6490  -10.8180   -2.6770 H   0  0  0  0  0  0  0  0  0  0  0  0
  -12.9080  -12.3830   -0.0540 H   0  0  0  0  0  0  0  0  0  0  0  0
  -10.6310  -12.4160   -2.0230 H   0  0  0  0  0  0  0  0  0  0  0  0
  -10.8280  -10.9740   -0.9970 H   0  0  0  0  0  0  0  0  0  0  0  0
  -10.8100  -13.8140    0.1460 H   0  0  0  0  0  0  0  0  0  0  0  0
  -10.6320  -12.2820    1.0330 H   0  0  0  0  0  0  0  0  0  0  0  0
   -8.8400  -12.7950   -1.1980 H   0  0  0  0  0  0  0  0  0  0  0  0
   -8.8840  -10.6830    0.0890 H   0  0  0  0  0  0  0  0  0  0  0  0
   -8.3970  -11.6510    1.5010 H   0  0  0  0  0  0  0  0  0  0  0  0
   -6.3790  -10.6860    0.4000 H   0  0  0  0  0  0  0  0  0  0  0  0
   -6.8530  -11.4320   -1.1450 H   0  0  0  0  0  0  0  0  0  0  0  0
   -4.5860  -14.6380    1.7910 H   0  0  0  0  0  0  0  0  0  0  0  0
   -4.1550  -14.5740    0.0660 H   0  0  0  0  0  0  0  0  0  0  0  0
   -2.6260  -13.2940    2.3670 H   0  0  0  0  0  0  0  0  0  0  0  0
   -2.2190  -13.1040    0.6440 H   0  0  0  0  0  0  0  0  0  0  0  0
   -1.8660  -15.5650    0.4650 H   0  0  0  0  0  0  0  0  0  0  0  0
   -2.2470  -15.7390    2.1950 H   0  0  0  0  0  0  0  0  0  0  0  0
   -0.3620  -13.7550    2.2420 H   0  0  0  0  0  0  0  0  0  0  0  0
   -0.3980  -17.3220    1.8040 H   0  0  0  0  0  0  0  0  0  0  0  0
    1.5900  -18.6820    1.2440 H   0  0  0  0  0  0  0  0  0  0  0  0
    3.7170  -17.5820    0.5830 H   0  0  0  0  0  0  0  0  0  0  0  0
    5.2170  -12.4960   -0.2630 H   0  0  0  0  0  0  0  0  0  0  0  0
    3.4850  -11.0940    1.8650 H   0  0  0  0  0  0  0  0  0  0  0  0
    5.0660  -11.8630    2.1460 H   0  0  0  0  0  0  0  0  0  0  0  0
    6.1120  -10.2800    0.4920 H   0  0  0  0  0  0  0  0  0  0  0  0
    5.3430   -9.3930    1.8300 H   0  0  0  0  0  0  0  0  0  0  0  0
    3.0310   -9.5490   -1.6370 H   0  0  0  0  0  0  0  0  0  0  0  0
   -6.8650  -14.2150   -1.1080 H   0  0  0  0  0  0  0  0  0  0  0  0
   -6.4090  -14.9250    0.4590 H   0  0  0  0  0  0  0  0  0  0  0  0
   -8.4140  -13.8890    1.5290 H   0  0  0  0  0  0  0  0  0  0  0  0
   -8.9190  -14.8880    0.1440 H   0  0  0  0  0  0  0  0  0  0  0  0
  -12.5190  -13.5580   -2.8180 H   0  0  0  0  0  0  0  0  0  0  0  0
  -14.1250  -13.4140   -2.0640 H   0  0  0  0  0  0  0  0  0  0  0  0
  -11.1930  -16.9730    0.4410 H   0  0  0  0  0  0  0  0  0  0  0  0
   -8.9950  -17.9840   -0.0300 H   0  0  0  0  0  0  0  0  0  0  0  0
   -7.7110  -17.2880   -2.0250 H   0  0  0  0  0  0  0  0  0  0  0  0
   -8.6540  -15.6060   -3.5700 H   0  0  0  0  0  0  0  0  0  0  0  0
  -10.8590  -14.5990   -3.1190 H   0  0  0  0  0  0  0  0  0  0  0  0
  -15.3480   -7.1800   -1.1210 H   0  0  0  0  0  0  0  0  0  0  0  0
  -20.8970   -7.2370    0.4520 H   0  0  0  0  0  0  0  0  0  0  0  0
  -23.1920   -7.6640    1.2280 H   0  0  0  0  0  0  0  0  0  0  0  0
  -25.4910  -10.2450   -1.3540 H   0  0  0  0  0  0  0  0  0  0  0  0
  -25.4880  -11.5410   -0.1340 H   0  0  0  0  0  0  0  0  0  0  0  0
  -27.8090  -10.6430   -0.4730 H   0  0  0  0  0  0  0  0  0  0  0  0
  -27.2350   -9.0150   -0.0370 H   0  0  0  0  0  0  0  0  0  0  0  0
  -28.3080  -12.5970    2.7730 H   0  0  0  0  0  0  0  0  0  0  0  0
  -30.0200  -12.3970    3.2180 H   0  0  0  0  0  0  0  0  0  0  0  0
  1  2  1  0  0  0  0
  1 91  1  0  0  0  0
  1 92  1  0  0  0  0
  1 93  1  0  0  0  0
  2  3  1  0  0  0  0
  2  4  1  0  0  0  0
  2 90  1  0  0  0  0
  3 94  1  0  0  0  0
  3 95  1  0  0  0  0
  3 96  1  0  0  0  0
  4  5  1  0  0  0  0
  4 97  1  0  0  0  0
  4 98  1  0  0  0  0
  5  6  1  0  0  0  0
  5 99  1  0  0  0  0
  5100  1  0  0  0  0
  6  7  1  0  0  0  0
  6 14  2  0  0  0  0
  7  8  1  0  0  0  0
  7 13  2  0  0  0  0
  8  9  2  0  0  0  0
  8101  1  0  0  0  0
  9 10  1  0  0  0  0
  9102  1  0  0  0  0
 10 11  1  0  0  0  0
 10 12  2  0  0  0  0
 12 13  1  0  0  0  0
 12103  1  0  0  0  0
 13104  1  0  0  0  0
 14 15  1  0  0  0  0
 14 90  1  0  0  0  0
 15 16  1  0  0  0  0
 15105  1  0  0  0  0
 15106  1  0  0  0  0
 16 17  1  0  0  0  0
 16 89  1  0  0  0  0
 16107  1  0  0  0  0
 17 18  1  0  0  0  0
 17108  1  0  0  0  0
 17109  1  0  0  0  0
 18 19  1  0  0  0  0
 18110  1  0  0  0  0
 18111  1  0  0  0  0
 19 20  1  0  0  0  0
 19 88  1  0  0  0  0
 20 21  1  0  0  0  0
 20 87  2  0  0  0  0
 21 22  2  0  0  0  0
 21112  1  0  0  0  0
 22 23  1  0  0  0  0
 22113  1  0  0  0  0
 23 24  1  0  0  0  0
 23 86  2  0  0  0  0
 24 25  2  0  0  0  0
 24 26  1  0  0  0  0
 26 27  1  0  0  0  0
 26114  1  0  0  0  0
 27 28  2  0  0  0  0
 27 29  2  0  0  0  0
 27 30  1  0  0  0  0
 30 31  1  0  0  0  0
 30 85  2  0  0  0  0
 31 32  2  0  0  0  0
 31115  1  0  0  0  0
 32 33  1  0  0  0  0
 32116  1  0  0  0  0
 33 34  1  0  0  0  0
 33 77  2  0  0  0  0
 34 35  1  0  0  0  0
 34117  1  0  0  0  0
 35 36  1  0  0  0  0
 35 69  1  0  0  0  0
 35118  1  0  0  0  0
 36 37  1  0  0  0  0
 36119  1  0  0  0  0
 36120  1  0  0  0  0
 37 38  1  0  0  0  0
 37121  1  0  0  0  0
 37122  1  0  0  0  0
 38 39  1  0  0  0  0
 38 68  1  0  0  0  0
 38123  1  0  0  0  0
 39 40  1  0  0  0  0
 39124  1  0  0  0  0
 39125  1  0  0  0  0
 40 41  1  0  0  0  0
 40126  1  0  0  0  0
 40127  1  0  0  0  0
 41 42  1  0  0  0  0
 41 67  1  0  0  0  0
 42 43  2  0  0  0  0
 42 44  1  0  0  0  0
 44 45  1  0  0  0  0
 44128  1  0  0  0  0
 44129  1  0  0  0  0
 45 46  1  0  0  0  0
 45130  1  0  0  0  0
 45131  1  0  0  0  0
 46 47  1  0  0  0  0
 46132  1  0  0  0  0
 46133  1  0  0  0  0
 47 48  1  0  0  0  0
 47134  1  0  0  0  0
 48 49  1  0  0  0  0
 48 53  2  0  0  0  0
 49 50  2  0  0  0  0
 49135  1  0  0  0  0
 50 51  1  0  0  0  0
 50136  1  0  0  0  0
 51 52  2  0  0  0  0
 51137  1  0  0  0  0
 52 53  1  0  0  0  0
 52 65  1  0  0  0  0
 53 54  1  0  0  0  0
 54 55  2  0  0  0  0
 54 56  1  0  0  0  0
 56 57  1  0  0  0  0
 56 65  1  0  0  0  0
 57 58  1  0  0  0  0
 57 63  1  0  0  0  0
 57138  1  0  0  0  0
 58 59  1  0  0  0  0
 58139  1  0  0  0  0
 58140  1  0  0  0  0
 59 60  1  0  0  0  0
 59141  1  0  0  0  0
 59142  1  0  0  0  0
 60 61  2  0  0  0  0
 60 62  1  0  0  0  0
 62 63  1  0  0  0  0
 62143  1  0  0  0  0
 63 64  2  0  0  0  0
 65 66  2  0  0  0  0
 67 68  1  0  0  0  0
 67144  1  0  0  0  0
 67145  1  0  0  0  0
 68146  1  0  0  0  0
 68147  1  0  0  0  0
 69 70  1  0  0  0  0
 69148  1  0  0  0  0
 69149  1  0  0  0  0
 70 71  1  0  0  0  0
 71 72  1  0  0  0  0
 71 76  2  0  0  0  0
 72 73  2  0  0  0  0
 72150  1  0  0  0  0
 73 74  1  0  0  0  0
 73151  1  0  0  0  0
 74 75  2  0  0  0  0
 74152  1  0  0  0  0
 75 76  1  0  0  0  0
 75153  1  0  0  0  0
 76154  1  0  0  0  0
 77 78  1  0  0  0  0
 77 85  1  0  0  0  0
 78 79  2  0  0  0  0
 78 80  2  0  0  0  0
 78 81  1  0  0  0  0
 81 82  1  0  0  0  0
 81 83  1  0  0  0  0
 81 84  1  0  0  0  0
 85155  1  0  0  0  0
 86 87  1  0  0  0  0
 86156  1  0  0  0  0
 87157  1  0  0  0  0
 88 89  1  0  0  0  0
 88158  1  0  0  0  0
 88159  1  0  0  0  0
 89160  1  0  0  0  0
 89161  1  0  0  0  0
 90162  1  0  0  0  0
 90163  1  0  0  0  0
M  CHG  1  16   1
M  CHG  1  38   1
M  END
>  <Compound ID>
642

>  <Uniprot>
Q07817

>  <Target>
BCL-xL

>  <E3 ligase>
CRBN

>  <IC50 (nM, Cellular activities)>
82

>  <Assay (Cellular activities, IC50)>
Inhibit viability of MOLT-4 cells

>  <Article DOI>
10.1016/j.ejmech.2020.112186

>  <Molecular Weight>
1314.973

>  <Exact Mass>
1313.4127

>  <XLogP3>
9.9499998

>  <Heavy Atom Count>
90

>  <Ring Count>
10

>  <Hydrogen Bond Acceptor Count>
16

>  <Hydrogen Bond Donor Count>
4

>  <Rotatable Bond Count>
22

>  <Topological Polar Surface Area>
235.02

>  <Molecular Formula>
C64H71ClF3N9O10S3

>  <InChI>
InChI=1S/C64H71ClF3N9O10S3/c1-63(2)27-25-50(42-13-17-45(65)18-14-42)44(39-63)40-74-32-34-75(35-33-74)47-19-15-43(16-20-47)59(80)72-90(86,87)49-21-22-52(55(38-49)89(84,85)64(66,67)68)70-46(41-88-48-8-4-3-5-9-48)26-29-73-30-36-76(37-31-73)57(79)12-7-28-69-53-11-6-10-51-58(53)62(83)77(61(51)82)54-23-24-56(78)71-60(54)81/h3-6,8-11,13-22,38,46,54,69-70H,7,12,23-37,39-41H2,1-2H3,(H,72,80)(H,71,78,81)/t46-,54?/m1/s1

>  <InChI Key>
GQLOKACUFGETGD-MFJGLPAGSA-N

$$$$
643
  MOE2018           3D

166175  0  0  1  0  0  0  0  0999 V2000
  -27.1110    7.8200    0.5240 C   0  0  0  0  0  0  0  0  0  0  0  0
  -28.5280    8.4110    0.3890 C   0  0  0  0  0  0  0  0  0  0  0  0
  -29.5180    7.2750    0.6990 C   0  0  0  0  0  0  0  0  0  0  0  0
  -28.7230    8.8670   -1.0920 C   0  0  0  0  0  0  0  0  0  0  0  0
  -29.5290   10.1800   -1.1660 C   0  0  0  0  0  0  0  0  0  0  0  0
  -28.6890   11.1870   -0.3990 C   0  0  0  0  0  0  0  0  0  0  0  0
  -28.3640   12.4450   -1.0610 C   0  0  0  0  0  0  0  0  0  0  0  0
  -27.6290   12.4490   -2.2540 C   0  0  0  0  0  0  0  0  0  0  0  0
  -27.2840   13.6460   -2.8700 C   0  0  0  0  0  0  0  0  0  0  0  0
  -27.6780   14.8580   -2.3030 C   0  0  0  0  0  0  0  0  0  0  0  0
  -27.2330   16.3520   -3.0590 Cl  0  0  0  0  0  0  0  0  0  0  0  0
  -28.4320   14.8680   -1.1280 C   0  0  0  0  0  0  0  0  0  0  0  0
  -28.7760   13.6690   -0.5170 C   0  0  0  0  0  0  0  0  0  0  0  0
  -28.2820   10.8620    0.8470 C   0  0  0  0  0  0  0  0  0  0  0  0
  -27.4190   11.7630    1.7010 C   0  0  0  0  0  0  0  0  0  0  0  0
  -26.1130   11.1250    1.5890 N   0  3  0  0  0  0  0  0  0  0  0  0
  -25.4240   11.6870    0.3770 C   0  0  0  0  0  0  0  0  0  0  0  0
  -24.0470   10.9930    0.2140 C   0  0  0  0  0  0  0  0  0  0  0  0
  -23.2800   11.2510    1.4600 N   0  0  0  0  0  0  0  0  0  0  0  0
  -21.8830   11.1370    1.4330 C   0  0  0  0  0  0  0  0  0  0  0  0
  -21.1400   11.8120    2.4070 C   0  0  0  0  0  0  0  0  0  0  0  0
  -19.7580   11.6960    2.4300 C   0  0  0  0  0  0  0  0  0  0  0  0
  -19.0820   10.9110    1.4810 C   0  0  0  0  0  0  0  0  0  0  0  0
  -17.6250   10.7740    1.5530 C   0  0  0  0  0  0  0  0  0  0  0  0
  -16.9050   11.3070    2.3810 O   0  0  0  0  0  0  0  0  0  0  0  0
  -16.9440   10.0160    0.6860 N   0  0  0  0  0  0  0  0  0  0  0  0
  -16.3510   10.9180   -0.5550 S   0  0  0  0  0  0  0  0  0  0  0  0
  -16.0830   10.0380   -1.6290 O   0  0  0  0  0  0  0  0  0  0  0  0
  -17.2570   11.9720   -0.8250 O   0  0  0  0  0  0  0  0  0  0  0  0
  -14.7920   11.6060    0.0580 C   0  0  0  0  0  0  0  0  0  0  0  0
  -14.7460   12.8860    0.6160 C   0  0  0  0  0  0  0  0  0  0  0  0
  -13.5500   13.4150    1.0800 C   0  0  0  0  0  0  0  0  0  0  0  0
  -12.3730   12.6710    0.9800 C   0  0  0  0  0  0  0  0  0  0  0  0
  -11.1920   13.2610    1.4280 N   0  0  0  0  0  0  0  0  0  0  0  0
  -10.3810   13.8970    0.3710 C   0  0  2  0  0  0  0  0  0  0  0  0
   -8.9160   13.7980    0.8480 C   0  0  0  0  0  0  0  0  0  0  0  0
   -8.0590   13.4930   -0.3920 C   0  0  0  0  0  0  0  0  0  0  0  0
   -6.7130   13.2170    0.1340 N   0  3  0  0  0  0  0  0  0  0  0  0
   -5.9360   14.4930    0.1750 C   0  0  0  0  0  0  0  0  0  0  0  0
   -4.5570   14.2040    0.8260 C   0  0  0  0  0  0  0  0  0  0  0  0
   -3.8910   13.1410    0.0220 N   0  0  0  0  0  0  0  0  0  0  0  0
   -2.5780   13.1560   -0.3070 C   0  0  0  0  0  0  0  0  0  0  0  0
   -2.0930   12.2380   -0.9570 O   0  0  0  0  0  0  0  0  0  0  0  0
   -1.6800   14.3240    0.1320 C   0  0  0  0  0  0  0  0  0  0  0  0
   -0.1850   14.1010   -0.1670 C   0  0  0  0  0  0  0  0  0  0  0  0
    0.6770   15.2790    0.3140 C   0  0  0  0  0  0  0  0  0  0  0  0
    2.1580   14.9900    0.0640 C   0  0  0  0  0  0  0  0  0  0  0  0
    2.8570   16.1640    0.5770 N   0  0  0  0  0  0  0  0  0  0  0  0
    4.2450   16.2480    0.5060 C   0  0  0  0  0  0  0  0  0  0  0  0
    5.0670   15.1180    0.6460 C   0  0  0  0  0  0  0  0  0  0  0  0
    6.4560   15.2490    0.5820 C   0  0  0  0  0  0  0  0  0  0  0  0
    7.0460   16.5010    0.3830 C   0  0  0  0  0  0  0  0  0  0  0  0
    6.2190   17.6160    0.2500 C   0  0  0  0  0  0  0  0  0  0  0  0
    4.8440   17.4970    0.3060 C   0  0  0  0  0  0  0  0  0  0  0  0
    4.2780   18.8040    0.1200 C   0  0  0  0  0  0  0  0  0  0  0  0
    3.1020   19.1540    0.0940 O   0  0  0  0  0  0  0  0  0  0  0  0
    5.3240   19.7030   -0.0380 N   0  0  0  0  0  0  0  0  0  0  0  0
    5.2260   21.1280   -0.3870 C   0  0  2  0  0  0  0  0  0  0  0  0
    4.5750   21.8700    0.8100 C   0  0  0  0  0  0  0  0  0  0  0  0
    4.3910   23.3440    0.3790 C   0  0  0  0  0  0  0  0  0  0  0  0
    3.4680   23.3680   -0.8260 C   0  0  0  0  0  0  0  0  0  0  0  0
    2.6460   24.2270   -1.0130 O   0  0  0  0  0  0  0  0  0  0  0  0
    3.5610   22.3990   -1.7720 N   0  0  0  0  0  0  0  0  0  0  0  0
    4.3680   21.3090   -1.6500 C   0  0  0  0  0  0  0  0  0  0  0  0
    4.3810   20.5580   -2.6000 O   0  0  0  0  0  0  0  0  0  0  0  0
    6.5190   19.0120    0.0380 C   0  0  0  0  0  0  0  0  0  0  0  0
    7.6000   19.5720   -0.0600 O   0  0  0  0  0  0  0  0  0  0  0  0
   -4.6790   11.8940   -0.2260 C   0  0  0  0  0  0  0  0  0  0  0  0
   -6.0390   12.3030   -0.8350 C   0  0  0  0  0  0  0  0  0  0  0  0
  -10.8710   15.3510    0.2050 C   0  0  0  0  0  0  0  0  0  0  0  0
   -9.8410   16.1050   -1.1060 S   0  0  0  0  0  0  0  0  0  0  0  0
  -10.3480   17.7750   -1.2640 C   0  0  0  0  0  0  0  0  0  0  0  0
  -11.3460   18.3460   -0.4590 C   0  0  0  0  0  0  0  0  0  0  0  0
  -11.6970   19.6820   -0.6230 C   0  0  0  0  0  0  0  0  0  0  0  0
  -11.0640   20.4620   -1.5870 C   0  0  0  0  0  0  0  0  0  0  0  0
  -10.0760   19.9010   -2.3910 C   0  0  0  0  0  0  0  0  0  0  0  0
   -9.7210   18.5670   -2.2320 C   0  0  0  0  0  0  0  0  0  0  0  0
  -12.3930   11.3680    0.4610 C   0  0  0  0  0  0  0  0  0  0  0  0
  -10.9250   10.3090    0.4800 S   0  0  0  0  0  0  0  0  0  0  0  0
  -11.2840    9.0630   -0.1100 O   0  0  0  0  0  0  0  0  0  0  0  0
   -9.8330   10.9820   -0.1590 O   0  0  0  0  0  0  0  0  0  0  0  0
  -10.5720   10.0690    2.3350 C   0  0  0  0  0  0  0  0  0  0  0  0
  -11.6840   10.0550    3.1090 F   0  0  0  0  0  0  0  0  0  0  0  0
   -9.7780   11.0230    2.8900 F   0  0  0  0  0  0  0  0  0  0  0  0
   -9.9370    8.9100    2.6290 F   0  0  0  0  0  0  0  0  0  0  0  0
  -13.6070   10.8650   -0.0200 C   0  0  0  0  0  0  0  0  0  0  0  0
  -19.8410   10.2610    0.4890 C   0  0  0  0  0  0  0  0  0  0  0  0
  -21.2240   10.3700    0.4620 C   0  0  0  0  0  0  0  0  0  0  0  0
  -23.9330   10.7590    2.7000 C   0  0  0  0  0  0  0  0  0  0  0  0
  -25.3040   11.4770    2.7970 C   0  0  0  0  0  0  0  0  0  0  0  0
  -28.7360    9.5400    1.4490 C   0  0  0  0  0  0  0  0  0  0  0  0
  -26.9730    7.0340   -0.2180 H   0  0  0  0  0  0  0  0  0  0  0  0
  -26.9850    7.4030    1.5230 H   0  0  0  0  0  0  0  0  0  0  0  0
  -26.3730    8.6060    0.3620 H   0  0  0  0  0  0  0  0  0  0  0  0
  -29.3910    6.4740   -0.0290 H   0  0  0  0  0  0  0  0  0  0  0  0
  -30.5380    7.6570    0.6450 H   0  0  0  0  0  0  0  0  0  0  0  0
  -29.3270    6.8890    1.7000 H   0  0  0  0  0  0  0  0  0  0  0  0
  -27.7450    9.0230   -1.5480 H   0  0  0  0  0  0  0  0  0  0  0  0
  -29.2580    8.0890   -1.6370 H   0  0  0  0  0  0  0  0  0  0  0  0
  -30.5060   10.0590   -0.6990 H   0  0  0  0  0  0  0  0  0  0  0  0
  -29.6580   10.4950   -2.2020 H   0  0  0  0  0  0  0  0  0  0  0  0
  -27.3280   11.5120   -2.6990 H   0  0  0  0  0  0  0  0  0  0  0  0
  -26.7120   13.6380   -3.7860 H   0  0  0  0  0  0  0  0  0  0  0  0
  -28.7470   15.8060   -0.6950 H   0  0  0  0  0  0  0  0  0  0  0  0
  -29.3670   13.6800    0.3870 H   0  0  0  0  0  0  0  0  0  0  0  0
  -27.7650   11.7790    2.7350 H   0  0  0  0  0  0  0  0  0  0  0  0
  -27.3980   12.7800    1.3090 H   0  0  0  0  0  0  0  0  0  0  0  0
  -26.2120   10.1230    1.5140 H   0  0  0  0  0  0  0  0  0  0  0  0
  -26.0330   11.5030   -0.5080 H   0  0  0  0  0  0  0  0  0  0  0  0
  -25.2800   12.7600    0.5030 H   0  0  0  0  0  0  0  0  0  0  0  0
  -23.5180   11.4080   -0.6440 H   0  0  0  0  0  0  0  0  0  0  0  0
  -24.1830    9.9210    0.0730 H   0  0  0  0  0  0  0  0  0  0  0  0
  -21.6430   12.4240    3.1420 H   0  0  0  0  0  0  0  0  0  0  0  0
  -19.1930   12.2170    3.1890 H   0  0  0  0  0  0  0  0  0  0  0  0
  -16.8110    9.0190    0.7810 H   0  0  0  0  0  0  0  0  0  0  0  0
  -15.6510   13.4700    0.6870 H   0  0  0  0  0  0  0  0  0  0  0  0
  -13.5300   14.4020    1.5180 H   0  0  0  0  0  0  0  0  0  0  0  0
  -10.9130   13.2540    2.3990 H   0  0  0  0  0  0  0  0  0  0  0  0
  -10.4680   13.4210   -0.6060 H   0  0  0  0  0  0  0  0  0  0  0  0
   -8.6040   14.7410    1.2960 H   0  0  0  0  0  0  0  0  0  0  0  0
   -8.8140   12.9970    1.5800 H   0  0  0  0  0  0  0  0  0  0  0  0
   -8.0390   14.3510   -1.0640 H   0  0  0  0  0  0  0  0  0  0  0  0
   -8.4490   12.6240   -0.9230 H   0  0  0  0  0  0  0  0  0  0  0  0
   -6.7660   12.8120    1.0580 H   0  0  0  0  0  0  0  0  0  0  0  0
   -5.7940   14.8700   -0.8380 H   0  0  0  0  0  0  0  0  0  0  0  0
   -6.4750   15.2340    0.7660 H   0  0  0  0  0  0  0  0  0  0  0  0
   -4.6950   13.8620    1.8520 H   0  0  0  0  0  0  0  0  0  0  0  0
   -3.9480   15.1080    0.8230 H   0  0  0  0  0  0  0  0  0  0  0  0
   -2.0050   15.2240   -0.3910 H   0  0  0  0  0  0  0  0  0  0  0  0
   -1.7990   14.4650    1.2060 H   0  0  0  0  0  0  0  0  0  0  0  0
    0.1440   13.1940    0.3390 H   0  0  0  0  0  0  0  0  0  0  0  0
   -0.0540   13.9850   -1.2430 H   0  0  0  0  0  0  0  0  0  0  0  0
    0.5150   15.4310    1.3810 H   0  0  0  0  0  0  0  0  0  0  0  0
    0.3900   16.1800   -0.2280 H   0  0  0  0  0  0  0  0  0  0  0  0
    2.3500   14.8630   -1.0010 H   0  0  0  0  0  0  0  0  0  0  0  0
    2.4700   14.0930    0.5990 H   0  0  0  0  0  0  0  0  0  0  0  0
    2.3300   16.9220    0.9870 H   0  0  0  0  0  0  0  0  0  0  0  0
    4.6240   14.1460    0.8030 H   0  0  0  0  0  0  0  0  0  0  0  0
    7.0810   14.3740    0.6870 H   0  0  0  0  0  0  0  0  0  0  0  0
    8.1200   16.6020    0.3330 H   0  0  0  0  0  0  0  0  0  0  0  0
    6.2170   21.5340   -0.5910 H   0  0  0  0  0  0  0  0  0  0  0  0
    3.6080   21.4250    1.0460 H   0  0  0  0  0  0  0  0  0  0  0  0
    5.2240   21.8130    1.6840 H   0  0  0  0  0  0  0  0  0  0  0  0
    5.3560   23.7750    0.1140 H   0  0  0  0  0  0  0  0  0  0  0  0
    3.9490   23.9160    1.1950 H   0  0  0  0  0  0  0  0  0  0  0  0
    3.0030   22.4910   -2.6090 H   0  0  0  0  0  0  0  0  0  0  0  0
   -4.1420   11.2490   -0.9210 H   0  0  0  0  0  0  0  0  0  0  0  0
   -4.8380   11.3640    0.7130 H   0  0  0  0  0  0  0  0  0  0  0  0
   -6.6530   11.4180   -1.0000 H   0  0  0  0  0  0  0  0  0  0  0  0
   -5.8820   12.8170   -1.7830 H   0  0  0  0  0  0  0  0  0  0  0  0
  -10.7490   15.8980    1.1400 H   0  0  0  0  0  0  0  0  0  0  0  0
  -11.9210   15.3630   -0.0880 H   0  0  0  0  0  0  0  0  0  0  0  0
  -11.8430   17.7470    0.2900 H   0  0  0  0  0  0  0  0  0  0  0  0
  -12.4640   20.1160    0.0010 H   0  0  0  0  0  0  0  0  0  0  0  0
  -11.3390   21.4990   -1.7110 H   0  0  0  0  0  0  0  0  0  0  0  0
   -9.5840   20.5040   -3.1400 H   0  0  0  0  0  0  0  0  0  0  0  0
   -8.9550   18.1380   -2.8610 H   0  0  0  0  0  0  0  0  0  0  0  0
  -13.6300    9.8800   -0.4630 H   0  0  0  0  0  0  0  0  0  0  0  0
  -19.3390    9.6690   -0.2620 H   0  0  0  0  0  0  0  0  0  0  0  0
  -21.7920    9.8650   -0.3060 H   0  0  0  0  0  0  0  0  0  0  0  0
  -24.0770    9.6800    2.6460 H   0  0  0  0  0  0  0  0  0  0  0  0
  -23.3200   11.0010    3.5680 H   0  0  0  0  0  0  0  0  0  0  0  0
  -25.1520   12.5560    2.8360 H   0  0  0  0  0  0  0  0  0  0  0  0
  -25.8260   11.1510    3.6970 H   0  0  0  0  0  0  0  0  0  0  0  0
  -28.1470    9.3210    2.3390 H   0  0  0  0  0  0  0  0  0  0  0  0
  -29.7910    9.6020    1.7170 H   0  0  0  0  0  0  0  0  0  0  0  0
  1  2  1  0  0  0  0
  1 92  1  0  0  0  0
  1 93  1  0  0  0  0
  1 94  1  0  0  0  0
  2  3  1  0  0  0  0
  2  4  1  0  0  0  0
  2 91  1  0  0  0  0
  3 95  1  0  0  0  0
  3 96  1  0  0  0  0
  3 97  1  0  0  0  0
  4  5  1  0  0  0  0
  4 98  1  0  0  0  0
  4 99  1  0  0  0  0
  5  6  1  0  0  0  0
  5100  1  0  0  0  0
  5101  1  0  0  0  0
  6  7  1  0  0  0  0
  6 14  2  0  0  0  0
  7  8  1  0  0  0  0
  7 13  2  0  0  0  0
  8  9  2  0  0  0  0
  8102  1  0  0  0  0
  9 10  1  0  0  0  0
  9103  1  0  0  0  0
 10 11  1  0  0  0  0
 10 12  2  0  0  0  0
 12 13  1  0  0  0  0
 12104  1  0  0  0  0
 13105  1  0  0  0  0
 14 15  1  0  0  0  0
 14 91  1  0  0  0  0
 15 16  1  0  0  0  0
 15106  1  0  0  0  0
 15107  1  0  0  0  0
 16 17  1  0  0  0  0
 16 90  1  0  0  0  0
 16108  1  0  0  0  0
 17 18  1  0  0  0  0
 17109  1  0  0  0  0
 17110  1  0  0  0  0
 18 19  1  0  0  0  0
 18111  1  0  0  0  0
 18112  1  0  0  0  0
 19 20  1  0  0  0  0
 19 89  1  0  0  0  0
 20 21  1  0  0  0  0
 20 88  2  0  0  0  0
 21 22  2  0  0  0  0
 21113  1  0  0  0  0
 22 23  1  0  0  0  0
 22114  1  0  0  0  0
 23 24  1  0  0  0  0
 23 87  2  0  0  0  0
 24 25  2  0  0  0  0
 24 26  1  0  0  0  0
 26 27  1  0  0  0  0
 26115  1  0  0  0  0
 27 28  2  0  0  0  0
 27 29  2  0  0  0  0
 27 30  1  0  0  0  0
 30 31  1  0  0  0  0
 30 86  2  0  0  0  0
 31 32  2  0  0  0  0
 31116  1  0  0  0  0
 32 33  1  0  0  0  0
 32117  1  0  0  0  0
 33 34  1  0  0  0  0
 33 78  2  0  0  0  0
 34 35  1  0  0  0  0
 34118  1  0  0  0  0
 35 36  1  0  0  0  0
 35 70  1  0  0  0  0
 35119  1  0  0  0  0
 36 37  1  0  0  0  0
 36120  1  0  0  0  0
 36121  1  0  0  0  0
 37 38  1  0  0  0  0
 37122  1  0  0  0  0
 37123  1  0  0  0  0
 38 39  1  0  0  0  0
 38 69  1  0  0  0  0
 38124  1  0  0  0  0
 39 40  1  0  0  0  0
 39125  1  0  0  0  0
 39126  1  0  0  0  0
 40 41  1  0  0  0  0
 40127  1  0  0  0  0
 40128  1  0  0  0  0
 41 42  1  0  0  0  0
 41 68  1  0  0  0  0
 42 43  2  0  0  0  0
 42 44  1  0  0  0  0
 44 45  1  0  0  0  0
 44129  1  0  0  0  0
 44130  1  0  0  0  0
 45 46  1  0  0  0  0
 45131  1  0  0  0  0
 45132  1  0  0  0  0
 46 47  1  0  0  0  0
 46133  1  0  0  0  0
 46134  1  0  0  0  0
 47 48  1  0  0  0  0
 47135  1  0  0  0  0
 47136  1  0  0  0  0
 48 49  1  0  0  0  0
 48137  1  0  0  0  0
 49 50  1  0  0  0  0
 49 54  2  0  0  0  0
 50 51  2  0  0  0  0
 50138  1  0  0  0  0
 51 52  1  0  0  0  0
 51139  1  0  0  0  0
 52 53  2  0  0  0  0
 52140  1  0  0  0  0
 53 54  1  0  0  0  0
 53 66  1  0  0  0  0
 54 55  1  0  0  0  0
 55 56  2  0  0  0  0
 55 57  1  0  0  0  0
 57 58  1  0  0  0  0
 57 66  1  0  0  0  0
 58 59  1  0  0  0  0
 58 64  1  0  0  0  0
 58141  1  0  0  0  0
 59 60  1  0  0  0  0
 59142  1  0  0  0  0
 59143  1  0  0  0  0
 60 61  1  0  0  0  0
 60144  1  0  0  0  0
 60145  1  0  0  0  0
 61 62  2  0  0  0  0
 61 63  1  0  0  0  0
 63 64  1  0  0  0  0
 63146  1  0  0  0  0
 64 65  2  0  0  0  0
 66 67  2  0  0  0  0
 68 69  1  0  0  0  0
 68147  1  0  0  0  0
 68148  1  0  0  0  0
 69149  1  0  0  0  0
 69150  1  0  0  0  0
 70 71  1  0  0  0  0
 70151  1  0  0  0  0
 70152  1  0  0  0  0
 71 72  1  0  0  0  0
 72 73  1  0  0  0  0
 72 77  2  0  0  0  0
 73 74  2  0  0  0  0
 73153  1  0  0  0  0
 74 75  1  0  0  0  0
 74154  1  0  0  0  0
 75 76  2  0  0  0  0
 75155  1  0  0  0  0
 76 77  1  0  0  0  0
 76156  1  0  0  0  0
 77157  1  0  0  0  0
 78 79  1  0  0  0  0
 78 86  1  0  0  0  0
 79 80  2  0  0  0  0
 79 81  2  0  0  0  0
 79 82  1  0  0  0  0
 82 83  1  0  0  0  0
 82 84  1  0  0  0  0
 82 85  1  0  0  0  0
 86158  1  0  0  0  0
 87 88  1  0  0  0  0
 87159  1  0  0  0  0
 88160  1  0  0  0  0
 89 90  1  0  0  0  0
 89161  1  0  0  0  0
 89162  1  0  0  0  0
 90163  1  0  0  0  0
 90164  1  0  0  0  0
 91165  1  0  0  0  0
 91166  1  0  0  0  0
M  CHG  1  16   1
M  CHG  1  38   1
M  END
>  <Compound ID>
643

>  <Uniprot>
Q07817

>  <Target>
BCL-xL

>  <E3 ligase>
CRBN

>  <IC50 (nM, Cellular activities)>
346

>  <Assay (Cellular activities, IC50)>
Inhibit viability of MOLT-4 cells

>  <Article DOI>
10.1016/j.ejmech.2020.112186

>  <Molecular Weight>
1329

>  <Exact Mass>
1327.4283

>  <XLogP3>
10.3

>  <Heavy Atom Count>
91

>  <Ring Count>
10

>  <Hydrogen Bond Acceptor Count>
16

>  <Hydrogen Bond Donor Count>
4

>  <Rotatable Bond Count>
23

>  <Topological Polar Surface Area>
235.02

>  <Molecular Formula>
C65H73ClF3N9O10S3

>  <InChI>
InChI=1S/C65H73ClF3N9O10S3/c1-64(2)28-26-51(43-14-18-46(66)19-15-43)45(40-64)41-75-33-35-76(36-34-75)48-20-16-44(17-21-48)60(81)73-91(87,88)50-22-23-53(56(39-50)90(85,86)65(67,68)69)71-47(42-89-49-9-4-3-5-10-49)27-30-74-31-37-77(38-32-74)58(80)13-6-7-29-70-54-12-8-11-52-59(54)63(84)78(62(52)83)55-24-25-57(79)72-61(55)82/h3-5,8-12,14-23,39,47,55,70-71H,6-7,13,24-38,40-42H2,1-2H3,(H,73,81)(H,72,79,82)/t47-,55?/m1/s1

>  <InChI Key>
FWKWJVPLMFFODU-IQRNJRIOSA-N

$$$$
644
  MOE2018           3D

169178  0  0  1  0  0  0  0  0999 V2000
  -31.0390   18.4610   -1.0380 C   0  0  0  0  0  0  0  0  0  0  0  0
  -31.3530   16.9600   -0.9090 C   0  0  0  0  0  0  0  0  0  0  0  0
  -32.8320   16.8520   -0.4810 C   0  0  0  0  0  0  0  0  0  0  0  0
  -31.0530   16.3060   -2.2730 C   0  0  0  0  0  0  0  0  0  0  0  0
  -31.4570   14.8180   -2.2460 C   0  0  0  0  0  0  0  0  0  0  0  0
  -30.9300   14.1380   -0.9860 C   0  0  0  0  0  0  0  0  0  0  0  0
  -31.0040   12.6810   -1.0160 C   0  0  0  0  0  0  0  0  0  0  0  0
  -31.8740   11.9940   -0.1590 C   0  0  0  0  0  0  0  0  0  0  0  0
  -31.9200   10.6050   -0.1580 C   0  0  0  0  0  0  0  0  0  0  0  0
  -31.1020    9.8820   -1.0280 C   0  0  0  0  0  0  0  0  0  0  0  0
  -31.1430    8.1500   -1.0180 Cl  0  0  0  0  0  0  0  0  0  0  0  0
  -30.2510   10.5540   -1.9060 C   0  0  0  0  0  0  0  0  0  0  0  0
  -30.2080   11.9430   -1.9020 C   0  0  0  0  0  0  0  0  0  0  0  0
  -30.4830   14.8240    0.0970 C   0  0  0  0  0  0  0  0  0  0  0  0
  -29.9910   14.1180    1.3460 C   0  0  0  0  0  0  0  0  0  0  0  0
  -28.5350   14.2570    1.2810 N   0  3  0  0  0  0  0  0  0  0  0  0
  -28.0150   13.2310    0.3110 C   0  0  0  0  0  0  0  0  0  0  0  0
  -26.4730   13.3600    0.2130 C   0  0  0  0  0  0  0  0  0  0  0  0
  -25.9340   13.1450    1.5800 N   0  0  0  0  0  0  0  0  0  0  0  0
  -24.5960   12.7270    1.6450 C   0  0  0  0  0  0  0  0  0  0  0  0
  -24.2420   11.5150    1.0420 C   0  0  0  0  0  0  0  0  0  0  0  0
  -22.9280   11.0740    1.0900 C   0  0  0  0  0  0  0  0  0  0  0  0
  -21.9360   11.8250    1.7420 C   0  0  0  0  0  0  0  0  0  0  0  0
  -20.5600   11.3250    1.7990 C   0  0  0  0  0  0  0  0  0  0  0  0
  -20.2390   10.1560    1.6710 O   0  0  0  0  0  0  0  0  0  0  0  0
  -19.5000   12.1160    2.0170 N   0  0  0  0  0  0  0  0  0  0  0  0
  -19.1980   13.1590    0.7830 S   0  0  0  0  0  0  0  0  0  0  0  0
  -19.8560   14.3780    1.0710 O   0  0  0  0  0  0  0  0  0  0  0  0
  -19.5490   12.5350   -0.4360 O   0  0  0  0  0  0  0  0  0  0  0  0
  -17.4090   13.4290    0.8410 C   0  0  0  0  0  0  0  0  0  0  0  0
  -16.8800   14.4230    1.6670 C   0  0  0  0  0  0  0  0  0  0  0  0
  -15.5120   14.6430    1.7250 C   0  0  0  0  0  0  0  0  0  0  0  0
  -14.6440   13.8840    0.9350 C   0  0  0  0  0  0  0  0  0  0  0  0
  -13.2810   14.1910    1.0150 N   0  0  0  0  0  0  0  0  0  0  0  0
  -12.7690   15.1350   -0.0190 C   0  0  2  0  0  0  0  0  0  0  0  0
  -11.2370   15.1740    0.1630 C   0  0  0  0  0  0  0  0  0  0  0  0
  -10.6900   13.8430   -0.3660 C   0  0  0  0  0  0  0  0  0  0  0  0
   -9.2300   13.9030   -0.1500 N   0  3  0  0  0  0  0  0  0  0  0  0
   -8.7160   12.5050   -0.1050 C   0  0  0  0  0  0  0  0  0  0  0  0
   -7.2170   12.5560    0.2960 C   0  0  0  0  0  0  0  0  0  0  0  0
   -6.4920   13.4170   -0.6840 N   0  0  0  0  0  0  0  0  0  0  0  0
   -5.2160   13.1790   -1.0750 C   0  0  0  0  0  0  0  0  0  0  0  0
   -4.6340   13.9670   -1.8100 O   0  0  0  0  0  0  0  0  0  0  0  0
   -4.4840   11.9170   -0.5880 C   0  0  0  0  0  0  0  0  0  0  0  0
   -3.0010   11.8380   -1.0030 C   0  0  0  0  0  0  0  0  0  0  0  0
   -2.3420   10.5660   -0.4460 C   0  0  0  0  0  0  0  0  0  0  0  0
   -0.8570   10.5000   -0.8380 C   0  0  0  0  0  0  0  0  0  0  0  0
   -0.2030    9.2400   -0.2660 C   0  0  0  0  0  0  0  0  0  0  0  0
    1.1860    9.3030   -0.7070 N   0  0  0  0  0  0  0  0  0  0  0  0
    2.1370    8.3930   -0.2530 C   0  0  0  0  0  0  0  0  0  0  0  0
    1.7920    7.0810    0.1100 C   0  0  0  0  0  0  0  0  0  0  0  0
    2.7780    6.1930    0.5480 C   0  0  0  0  0  0  0  0  0  0  0  0
    4.1150    6.5940    0.6260 C   0  0  0  0  0  0  0  0  0  0  0  0
    4.4440    7.8980    0.2600 C   0  0  0  0  0  0  0  0  0  0  0  0
    3.4780    8.7870   -0.1700 C   0  0  0  0  0  0  0  0  0  0  0  0
    4.1220   10.0420   -0.4440 C   0  0  0  0  0  0  0  0  0  0  0  0
    3.6390   11.1140   -0.7930 O   0  0  0  0  0  0  0  0  0  0  0  0
    5.4800    9.8880   -0.1950 N   0  0  0  0  0  0  0  0  0  0  0  0
    6.5460   10.8690   -0.4400 C   0  0  2  0  0  0  0  0  0  0  0  0
    6.3600   12.0340    0.5660 C   0  0  0  0  0  0  0  0  0  0  0  0
    7.4170   13.1070    0.2160 C   0  0  0  0  0  0  0  0  0  0  0  0
    7.1460   13.5860   -1.1980 C   0  0  0  0  0  0  0  0  0  0  0  0
    7.2750   14.7300   -1.5480 O   0  0  0  0  0  0  0  0  0  0  0  0
    6.7570   12.6990   -2.1490 N   0  0  0  0  0  0  0  0  0  0  0  0
    6.4660   11.3960   -1.8830 C   0  0  0  0  0  0  0  0  0  0  0  0
    6.2030   10.7110   -2.8460 O   0  0  0  0  0  0  0  0  0  0  0  0
    5.7070    8.5960    0.2400 C   0  0  0  0  0  0  0  0  0  0  0  0
    6.8210    8.2040    0.5530 O   0  0  0  0  0  0  0  0  0  0  0  0
   -7.0870   14.7540   -1.0010 C   0  0  0  0  0  0  0  0  0  0  0  0
   -8.5870   14.5610   -1.3310 C   0  0  0  0  0  0  0  0  0  0  0  0
  -13.3930   16.5290    0.2100 C   0  0  0  0  0  0  0  0  0  0  0  0
  -12.8060   17.5950   -1.1570 S   0  0  0  0  0  0  0  0  0  0  0  0
  -13.2810   19.2340   -0.7560 C   0  0  0  0  0  0  0  0  0  0  0  0
  -14.1990   19.5260    0.2630 C   0  0  0  0  0  0  0  0  0  0  0  0
  -14.5300   20.8470    0.5470 C   0  0  0  0  0  0  0  0  0  0  0  0
  -13.9600   21.8870   -0.1810 C   0  0  0  0  0  0  0  0  0  0  0  0
  -13.0560   21.6020   -1.2000 C   0  0  0  0  0  0  0  0  0  0  0  0
  -12.7190   20.2850   -1.4890 C   0  0  0  0  0  0  0  0  0  0  0  0
  -15.1420   12.8470    0.1280 C   0  0  0  0  0  0  0  0  0  0  0  0
  -14.0520   11.7040   -0.7530 S   0  0  0  0  0  0  0  0  0  0  0  0
  -14.8580   10.8790   -1.5870 O   0  0  0  0  0  0  0  0  0  0  0  0
  -13.0240   12.4310   -1.4330 O   0  0  0  0  0  0  0  0  0  0  0  0
  -13.2990   10.6740    0.6500 C   0  0  0  0  0  0  0  0  0  0  0  0
  -14.1710   10.3720    1.6420 F   0  0  0  0  0  0  0  0  0  0  0  0
  -12.7910    9.4830    0.2580 F   0  0  0  0  0  0  0  0  0  0  0  0
  -12.2520   11.2800    1.2850 F   0  0  0  0  0  0  0  0  0  0  0  0
  -16.5290   12.6570    0.0740 C   0  0  0  0  0  0  0  0  0  0  0  0
  -22.3100   13.0360    2.3520 C   0  0  0  0  0  0  0  0  0  0  0  0
  -23.6210   13.4870    2.3040 C   0  0  0  0  0  0  0  0  0  0  0  0
  -26.4340   14.1060    2.5930 C   0  0  0  0  0  0  0  0  0  0  0  0
  -27.9760   13.9430    2.6360 C   0  0  0  0  0  0  0  0  0  0  0  0
  -30.4200   16.3500    0.1610 C   0  0  0  0  0  0  0  0  0  0  0  0
  -31.6910   18.9050   -1.7900 H   0  0  0  0  0  0  0  0  0  0  0  0
  -29.9990   18.5900   -1.3360 H   0  0  0  0  0  0  0  0  0  0  0  0
  -31.2050   18.9510   -0.0790 H   0  0  0  0  0  0  0  0  0  0  0  0
  -33.4660   17.2890   -1.2520 H   0  0  0  0  0  0  0  0  0  0  0  0
  -32.9790   17.3880    0.4570 H   0  0  0  0  0  0  0  0  0  0  0  0
  -33.0950   15.8030   -0.3450 H   0  0  0  0  0  0  0  0  0  0  0  0
  -31.6180   16.8190   -3.0510 H   0  0  0  0  0  0  0  0  0  0  0  0
  -29.9870   16.3870   -2.4850 H   0  0  0  0  0  0  0  0  0  0  0  0
  -31.0420   14.3190   -3.1220 H   0  0  0  0  0  0  0  0  0  0  0  0
  -32.5440   14.7420   -2.2650 H   0  0  0  0  0  0  0  0  0  0  0  0
  -32.5160   12.5500    0.5080 H   0  0  0  0  0  0  0  0  0  0  0  0
  -32.5870   10.0860    0.5140 H   0  0  0  0  0  0  0  0  0  0  0  0
  -29.6270    9.9960   -2.5880 H   0  0  0  0  0  0  0  0  0  0  0  0
  -29.5540   12.4590   -2.5890 H   0  0  0  0  0  0  0  0  0  0  0  0
  -30.2810   13.0670    1.3370 H   0  0  0  0  0  0  0  0  0  0  0  0
  -30.3860   14.5960    2.2420 H   0  0  0  0  0  0  0  0  0  0  0  0
  -28.2740   15.1900    0.9940 H   0  0  0  0  0  0  0  0  0  0  0  0
  -28.2760   12.2320    0.6610 H   0  0  0  0  0  0  0  0  0  0  0  0
  -28.4580   13.3990   -0.6700 H   0  0  0  0  0  0  0  0  0  0  0  0
  -26.2020   14.3530   -0.1450 H   0  0  0  0  0  0  0  0  0  0  0  0
  -26.0770   12.6080   -0.4690 H   0  0  0  0  0  0  0  0  0  0  0  0
  -24.9920   10.9230    0.5390 H   0  0  0  0  0  0  0  0  0  0  0  0
  -22.6630   10.1390    0.6190 H   0  0  0  0  0  0  0  0  0  0  0  0
  -18.9410   12.0750    2.8570 H   0  0  0  0  0  0  0  0  0  0  0  0
  -17.5440   15.0270    2.2670 H   0  0  0  0  0  0  0  0  0  0  0  0
  -15.1160   15.4030    2.3820 H   0  0  0  0  0  0  0  0  0  0  0  0
  -12.6830   13.7980    1.7280 H   0  0  0  0  0  0  0  0  0  0  0  0
  -13.0280   14.8240   -1.0310 H   0  0  0  0  0  0  0  0  0  0  0  0
  -10.8140   16.0040   -0.4020 H   0  0  0  0  0  0  0  0  0  0  0  0
  -10.9880   15.2890    1.2180 H   0  0  0  0  0  0  0  0  0  0  0  0
  -10.9140   13.7340   -1.4270 H   0  0  0  0  0  0  0  0  0  0  0  0
  -11.1230   13.0080    0.1840 H   0  0  0  0  0  0  0  0  0  0  0  0
   -9.0290   14.4100    0.7000 H   0  0  0  0  0  0  0  0  0  0  0  0
   -9.2760   11.9290    0.6310 H   0  0  0  0  0  0  0  0  0  0  0  0
   -8.8210   12.0410   -1.0860 H   0  0  0  0  0  0  0  0  0  0  0  0
   -6.7980   11.5500    0.2810 H   0  0  0  0  0  0  0  0  0  0  0  0
   -7.1190   12.9760    1.2970 H   0  0  0  0  0  0  0  0  0  0  0  0
   -4.5350   11.8930    0.5010 H   0  0  0  0  0  0  0  0  0  0  0  0
   -4.9980   11.0470   -0.9950 H   0  0  0  0  0  0  0  0  0  0  0  0
   -2.9350   11.8270   -2.0910 H   0  0  0  0  0  0  0  0  0  0  0  0
   -2.4750   12.7110   -0.6160 H   0  0  0  0  0  0  0  0  0  0  0  0
   -2.8560    9.6930   -0.8480 H   0  0  0  0  0  0  0  0  0  0  0  0
   -2.4240   10.5680    0.6410 H   0  0  0  0  0  0  0  0  0  0  0  0
   -0.3440   11.3790   -0.4470 H   0  0  0  0  0  0  0  0  0  0  0  0
   -0.7740   10.4850   -1.9250 H   0  0  0  0  0  0  0  0  0  0  0  0
   -0.6890    8.3450   -0.6560 H   0  0  0  0  0  0  0  0  0  0  0  0
   -0.2600    9.2390    0.8230 H   0  0  0  0  0  0  0  0  0  0  0  0
    1.4650   10.0240   -1.3570 H   0  0  0  0  0  0  0  0  0  0  0  0
    0.7630    6.7580    0.0510 H   0  0  0  0  0  0  0  0  0  0  0  0
    2.5040    5.1870    0.8290 H   0  0  0  0  0  0  0  0  0  0  0  0
    4.8770    5.9070    0.9630 H   0  0  0  0  0  0  0  0  0  0  0  0
    7.5230   10.4050   -0.3070 H   0  0  0  0  0  0  0  0  0  0  0  0
    5.3580   12.4520    0.4740 H   0  0  0  0  0  0  0  0  0  0  0  0
    6.5120   11.6770    1.5850 H   0  0  0  0  0  0  0  0  0  0  0  0
    8.4160   12.6760    0.2760 H   0  0  0  0  0  0  0  0  0  0  0  0
    7.3400   13.9430    0.9110 H   0  0  0  0  0  0  0  0  0  0  0  0
    6.6790   13.0220   -3.1030 H   0  0  0  0  0  0  0  0  0  0  0  0
   -6.9820   15.4160   -0.1410 H   0  0  0  0  0  0  0  0  0  0  0  0
   -6.5750   15.1900   -1.8590 H   0  0  0  0  0  0  0  0  0  0  0  0
   -8.6950   13.9290   -2.2130 H   0  0  0  0  0  0  0  0  0  0  0  0
   -9.0540   15.5280   -1.5170 H   0  0  0  0  0  0  0  0  0  0  0  0
  -13.0680   16.9340    1.1690 H   0  0  0  0  0  0  0  0  0  0  0  0
  -14.4810   16.4610    0.1940 H   0  0  0  0  0  0  0  0  0  0  0  0
  -14.6500   18.7240    0.8280 H   0  0  0  0  0  0  0  0  0  0  0  0
  -15.2330   21.0670    1.3370 H   0  0  0  0  0  0  0  0  0  0  0  0
  -14.2180   22.9110    0.0440 H   0  0  0  0  0  0  0  0  0  0  0  0
  -12.6150   22.4070   -1.7680 H   0  0  0  0  0  0  0  0  0  0  0  0
  -12.0190   20.0720   -2.2840 H   0  0  0  0  0  0  0  0  0  0  0  0
  -16.9300   11.8940   -0.5770 H   0  0  0  0  0  0  0  0  0  0  0  0
  -21.5640   13.6240    2.8660 H   0  0  0  0  0  0  0  0  0  0  0  0
  -23.8890   14.4220    2.7740 H   0  0  0  0  0  0  0  0  0  0  0  0
  -26.0050   13.8810    3.5690 H   0  0  0  0  0  0  0  0  0  0  0  0
  -26.1710   15.1240    2.3070 H   0  0  0  0  0  0  0  0  0  0  0  0
  -28.3960   14.6280    3.3730 H   0  0  0  0  0  0  0  0  0  0  0  0
  -28.2280   12.9180    2.9070 H   0  0  0  0  0  0  0  0  0  0  0  0
  -30.7370   16.6840    1.1490 H   0  0  0  0  0  0  0  0  0  0  0  0
  -29.3970   16.6780   -0.0230 H   0  0  0  0  0  0  0  0  0  0  0  0
  1  2  1  0  0  0  0
  1 93  1  0  0  0  0
  1 94  1  0  0  0  0
  1 95  1  0  0  0  0
  2  3  1  0  0  0  0
  2  4  1  0  0  0  0
  2 92  1  0  0  0  0
  3 96  1  0  0  0  0
  3 97  1  0  0  0  0
  3 98  1  0  0  0  0
  4  5  1  0  0  0  0
  4 99  1  0  0  0  0
  4100  1  0  0  0  0
  5  6  1  0  0  0  0
  5101  1  0  0  0  0
  5102  1  0  0  0  0
  6  7  1  0  0  0  0
  6 14  2  0  0  0  0
  7  8  1  0  0  0  0
  7 13  2  0  0  0  0
  8  9  2  0  0  0  0
  8103  1  0  0  0  0
  9 10  1  0  0  0  0
  9104  1  0  0  0  0
 10 11  1  0  0  0  0
 10 12  2  0  0  0  0
 12 13  1  0  0  0  0
 12105  1  0  0  0  0
 13106  1  0  0  0  0
 14 15  1  0  0  0  0
 14 92  1  0  0  0  0
 15 16  1  0  0  0  0
 15107  1  0  0  0  0
 15108  1  0  0  0  0
 16 17  1  0  0  0  0
 16 91  1  0  0  0  0
 16109  1  0  0  0  0
 17 18  1  0  0  0  0
 17110  1  0  0  0  0
 17111  1  0  0  0  0
 18 19  1  0  0  0  0
 18112  1  0  0  0  0
 18113  1  0  0  0  0
 19 20  1  0  0  0  0
 19 90  1  0  0  0  0
 20 21  1  0  0  0  0
 20 89  2  0  0  0  0
 21 22  2  0  0  0  0
 21114  1  0  0  0  0
 22 23  1  0  0  0  0
 22115  1  0  0  0  0
 23 24  1  0  0  0  0
 23 88  2  0  0  0  0
 24 25  2  0  0  0  0
 24 26  1  0  0  0  0
 26 27  1  0  0  0  0
 26116  1  0  0  0  0
 27 28  2  0  0  0  0
 27 29  2  0  0  0  0
 27 30  1  0  0  0  0
 30 31  1  0  0  0  0
 30 87  2  0  0  0  0
 31 32  2  0  0  0  0
 31117  1  0  0  0  0
 32 33  1  0  0  0  0
 32118  1  0  0  0  0
 33 34  1  0  0  0  0
 33 79  2  0  0  0  0
 34 35  1  0  0  0  0
 34119  1  0  0  0  0
 35 36  1  0  0  0  0
 35 71  1  0  0  0  0
 35120  1  0  0  0  0
 36 37  1  0  0  0  0
 36121  1  0  0  0  0
 36122  1  0  0  0  0
 37 38  1  0  0  0  0
 37123  1  0  0  0  0
 37124  1  0  0  0  0
 38 39  1  0  0  0  0
 38 70  1  0  0  0  0
 38125  1  0  0  0  0
 39 40  1  0  0  0  0
 39126  1  0  0  0  0
 39127  1  0  0  0  0
 40 41  1  0  0  0  0
 40128  1  0  0  0  0
 40129  1  0  0  0  0
 41 42  1  0  0  0  0
 41 69  1  0  0  0  0
 42 43  2  0  0  0  0
 42 44  1  0  0  0  0
 44 45  1  0  0  0  0
 44130  1  0  0  0  0
 44131  1  0  0  0  0
 45 46  1  0  0  0  0
 45132  1  0  0  0  0
 45133  1  0  0  0  0
 46 47  1  0  0  0  0
 46134  1  0  0  0  0
 46135  1  0  0  0  0
 47 48  1  0  0  0  0
 47136  1  0  0  0  0
 47137  1  0  0  0  0
 48 49  1  0  0  0  0
 48138  1  0  0  0  0
 48139  1  0  0  0  0
 49 50  1  0  0  0  0
 49140  1  0  0  0  0
 50 51  1  0  0  0  0
 50 55  2  0  0  0  0
 51 52  2  0  0  0  0
 51141  1  0  0  0  0
 52 53  1  0  0  0  0
 52142  1  0  0  0  0
 53 54  2  0  0  0  0
 53143  1  0  0  0  0
 54 55  1  0  0  0  0
 54 67  1  0  0  0  0
 55 56  1  0  0  0  0
 56 57  2  0  0  0  0
 56 58  1  0  0  0  0
 58 59  1  0  0  0  0
 58 67  1  0  0  0  0
 59 60  1  0  0  0  0
 59 65  1  0  0  0  0
 59144  1  0  0  0  0
 60 61  1  0  0  0  0
 60145  1  0  0  0  0
 60146  1  0  0  0  0
 61 62  1  0  0  0  0
 61147  1  0  0  0  0
 61148  1  0  0  0  0
 62 63  2  0  0  0  0
 62 64  1  0  0  0  0
 64 65  1  0  0  0  0
 64149  1  0  0  0  0
 65 66  2  0  0  0  0
 67 68  2  0  0  0  0
 69 70  1  0  0  0  0
 69150  1  0  0  0  0
 69151  1  0  0  0  0
 70152  1  0  0  0  0
 70153  1  0  0  0  0
 71 72  1  0  0  0  0
 71154  1  0  0  0  0
 71155  1  0  0  0  0
 72 73  1  0  0  0  0
 73 74  1  0  0  0  0
 73 78  2  0  0  0  0
 74 75  2  0  0  0  0
 74156  1  0  0  0  0
 75 76  1  0  0  0  0
 75157  1  0  0  0  0
 76 77  2  0  0  0  0
 76158  1  0  0  0  0
 77 78  1  0  0  0  0
 77159  1  0  0  0  0
 78160  1  0  0  0  0
 79 80  1  0  0  0  0
 79 87  1  0  0  0  0
 80 81  2  0  0  0  0
 80 82  2  0  0  0  0
 80 83  1  0  0  0  0
 83 84  1  0  0  0  0
 83 85  1  0  0  0  0
 83 86  1  0  0  0  0
 87161  1  0  0  0  0
 88 89  1  0  0  0  0
 88162  1  0  0  0  0
 89163  1  0  0  0  0
 90 91  1  0  0  0  0
 90164  1  0  0  0  0
 90165  1  0  0  0  0
 91166  1  0  0  0  0
 91167  1  0  0  0  0
 92168  1  0  0  0  0
 92169  1  0  0  0  0
M  CHG  1  16   1
M  CHG  1  38   1
M  END
>  <Compound ID>
644

>  <Uniprot>
Q07817

>  <Target>
BCL-xL

>  <E3 ligase>
CRBN

>  <IC50 (nM, Cellular activities)>
518

>  <Assay (Cellular activities, IC50)>
Inhibit viability of MOLT-4 cells

>  <Article DOI>
10.1016/j.ejmech.2020.112186

>  <Molecular Weight>
1343.027

>  <Exact Mass>
1341.444

>  <XLogP3>
10.66

>  <Heavy Atom Count>
92

>  <Ring Count>
10

>  <Hydrogen Bond Acceptor Count>
16

>  <Hydrogen Bond Donor Count>
4

>  <Rotatable Bond Count>
24

>  <Topological Polar Surface Area>
235.02

>  <Molecular Formula>
C66H75ClF3N9O10S3

>  <InChI>
InChI=1S/C66H75ClF3N9O10S3/c1-65(2)29-27-52(44-15-19-47(67)20-16-44)46(41-65)42-76-34-36-77(37-35-76)49-21-17-45(18-22-49)61(82)74-92(88,89)51-23-24-54(57(40-51)91(86,87)66(68,69)70)72-48(43-90-50-10-5-3-6-11-50)28-31-75-32-38-78(39-33-75)59(81)14-7-4-8-30-71-55-13-9-12-53-60(55)64(85)79(63(53)84)56-25-26-58(80)73-62(56)83/h3,5-6,9-13,15-24,40,48,56,71-72H,4,7-8,14,25-39,41-43H2,1-2H3,(H,74,82)(H,73,80,83)/t48-,56?/m1/s1

>  <InChI Key>
LSWTUTVGIXUPJZ-YJUSKGKKSA-N

$$$$
645
  MOE2018           3D

172181  0  0  1  0  0  0  0  0999 V2000
  -31.8650   -7.7010   -1.3020 C   0  0  0  0  0  0  0  0  0  0  0  0
  -32.1920   -9.1930   -1.1080 C   0  0  0  0  0  0  0  0  0  0  0  0
  -33.5210   -9.4520   -1.8490 C   0  0  0  0  0  0  0  0  0  0  0  0
  -32.2680   -9.4570    0.4090 C   0  0  0  0  0  0  0  0  0  0  0  0
  -32.7090  -10.9120    0.6690 C   0  0  0  0  0  0  0  0  0  0  0  0
  -31.9020  -11.8800   -0.1890 C   0  0  0  0  0  0  0  0  0  0  0  0
  -32.0230  -13.2780    0.2120 C   0  0  0  0  0  0  0  0  0  0  0  0
  -31.4880  -13.7230    1.4280 C   0  0  0  0  0  0  0  0  0  0  0  0
  -31.5730  -15.0600    1.7950 C   0  0  0  0  0  0  0  0  0  0  0  0
  -32.2070  -15.9730    0.9510 C   0  0  0  0  0  0  0  0  0  0  0  0
  -32.2990  -17.6450    1.3970 Cl  0  0  0  0  0  0  0  0  0  0  0  0
  -32.7670  -15.5400   -0.2510 C   0  0  0  0  0  0  0  0  0  0  0  0
  -32.6800  -14.2010   -0.6130 C   0  0  0  0  0  0  0  0  0  0  0  0
  -31.1740  -11.4900   -1.2660 C   0  0  0  0  0  0  0  0  0  0  0  0
  -30.4010  -12.4850   -2.1110 C   0  0  0  0  0  0  0  0  0  0  0  0
  -29.0030  -12.2650   -1.7340 N   0  3  0  0  0  0  0  0  0  0  0  0
  -28.1330  -12.9760   -2.7280 C   0  0  0  0  0  0  0  0  0  0  0  0
  -26.6440  -12.7400   -2.3570 C   0  0  0  0  0  0  0  0  0  0  0  0
  -26.4540  -13.2680   -0.9830 N   0  0  0  0  0  0  0  0  0  0  0  0
  -25.1400  -13.6200   -0.6410 C   0  0  0  0  0  0  0  0  0  0  0  0
  -24.4660  -12.9960    0.4170 C   0  0  0  0  0  0  0  0  0  0  0  0
  -23.1740  -13.3870    0.7370 C   0  0  0  0  0  0  0  0  0  0  0  0
  -22.5240  -14.4050    0.0180 C   0  0  0  0  0  0  0  0  0  0  0  0
  -21.1700  -14.8130    0.4000 C   0  0  0  0  0  0  0  0  0  0  0  0
  -20.5220  -14.3230    1.3110 O   0  0  0  0  0  0  0  0  0  0  0  0
  -20.5090  -15.7930   -0.2260 N   0  0  0  0  0  0  0  0  0  0  0  0
  -19.5550  -15.1970   -1.4260 S   0  0  0  0  0  0  0  0  0  0  0  0
  -20.3160  -14.2770   -2.1860 O   0  0  0  0  0  0  0  0  0  0  0  0
  -19.0200  -16.3000   -2.1280 O   0  0  0  0  0  0  0  0  0  0  0  0
  -18.2120  -14.3130   -0.5920 C   0  0  0  0  0  0  0  0  0  0  0  0
  -18.0820  -12.9280   -0.7190 C   0  0  0  0  0  0  0  0  0  0  0  0
  -17.0640  -12.2460   -0.0700 C   0  0  0  0  0  0  0  0  0  0  0  0
  -16.1530  -12.9420    0.7310 C   0  0  0  0  0  0  0  0  0  0  0  0
  -15.1230  -12.2420    1.3750 N   0  0  0  0  0  0  0  0  0  0  0  0
  -14.4050  -11.1950    0.6580 C   0  0  2  0  0  0  0  0  0  0  0  0
  -12.9280  -11.5690    0.8840 C   0  0  0  0  0  0  0  0  0  0  0  0
  -12.0280  -10.6030    0.1040 C   0  0  0  0  0  0  0  0  0  0  0  0
  -10.6610  -11.0880    0.3580 N   0  3  0  0  0  0  0  0  0  0  0  0
   -9.7330   -9.9240    0.2480 C   0  0  0  0  0  0  0  0  0  0  0  0
   -8.3180  -10.3990    0.6680 C   0  0  0  0  0  0  0  0  0  0  0  0
   -7.9360  -11.5190   -0.2370 N   0  0  0  0  0  0  0  0  0  0  0  0
   -6.7100  -11.6500   -0.7920 C   0  0  0  0  0  0  0  0  0  0  0  0
   -6.4630  -12.5850   -1.5430 O   0  0  0  0  0  0  0  0  0  0  0  0
   -5.6150  -10.6180   -0.4830 C   0  0  0  0  0  0  0  0  0  0  0  0
   -4.2180  -10.9900   -1.0150 C   0  0  0  0  0  0  0  0  0  0  0  0
   -3.1910   -9.9280   -0.6000 C   0  0  0  0  0  0  0  0  0  0  0  0
   -1.7830  -10.3000   -1.0840 C   0  0  0  0  0  0  0  0  0  0  0  0
   -0.7820   -9.2280   -0.6320 C   0  0  0  0  0  0  0  0  0  0  0  0
    0.6430   -9.5620   -1.0770 C   0  0  0  0  0  0  0  0  0  0  0  0
    1.4400   -8.4590   -0.5540 N   0  0  0  0  0  0  0  0  0  0  0  0
    2.7820   -8.3110   -0.8860 C   0  0  0  0  0  0  0  0  0  0  0  0
    3.6150   -9.4130   -1.1350 C   0  0  0  0  0  0  0  0  0  0  0  0
    4.9630   -9.2130   -1.4430 C   0  0  0  0  0  0  0  0  0  0  0  0
    5.4980   -7.9220   -1.5050 C   0  0  0  0  0  0  0  0  0  0  0  0
    4.6570   -6.8380   -1.2560 C   0  0  0  0  0  0  0  0  0  0  0  0
    3.3220   -7.0220   -0.9560 C   0  0  0  0  0  0  0  0  0  0  0  0
    2.7240   -5.7300   -0.7710 C   0  0  0  0  0  0  0  0  0  0  0  0
    1.5650   -5.4320   -0.5010 O   0  0  0  0  0  0  0  0  0  0  0  0
    3.7140   -4.7730   -0.9490 N   0  0  0  0  0  0  0  0  0  0  0  0
    3.5420   -3.3140   -0.9800 C   0  0  2  0  0  0  0  0  0  0  0  0
    3.1340   -2.8480    0.4420 C   0  0  0  0  0  0  0  0  0  0  0  0
    2.8640   -1.3270    0.3580 C   0  0  0  0  0  0  0  0  0  0  0  0
    1.7250   -1.1060   -0.6200 C   0  0  0  0  0  0  0  0  0  0  0  0
    0.8810   -0.2600   -0.4730 O   0  0  0  0  0  0  0  0  0  0  0  0
    1.6350   -1.8670   -1.7400 N   0  0  0  0  0  0  0  0  0  0  0  0
    2.4530   -2.9260   -1.9940 C   0  0  0  0  0  0  0  0  0  0  0  0
    2.2830   -3.4760   -3.0590 O   0  0  0  0  0  0  0  0  0  0  0  0
    4.9030   -5.4150   -1.2450 C   0  0  0  0  0  0  0  0  0  0  0  0
    5.9410   -4.8000   -1.4390 O   0  0  0  0  0  0  0  0  0  0  0  0
   -8.9010  -12.6550   -0.3460 C   0  0  0  0  0  0  0  0  0  0  0  0
  -10.2830  -12.0670   -0.7140 C   0  0  0  0  0  0  0  0  0  0  0  0
  -14.8440   -9.8570    1.2830 C   0  0  0  0  0  0  0  0  0  0  0  0
  -14.3840   -8.5520    0.0830 S   0  0  0  0  0  0  0  0  0  0  0  0
  -14.4640   -7.0290    0.9440 C   0  0  0  0  0  0  0  0  0  0  0  0
  -15.0410   -6.9120    2.2180 C   0  0  0  0  0  0  0  0  0  0  0  0
  -15.0510   -5.6830    2.8680 C   0  0  0  0  0  0  0  0  0  0  0  0
  -14.5000   -4.5590    2.2580 C   0  0  0  0  0  0  0  0  0  0  0  0
  -13.9420   -4.6660    0.9870 C   0  0  0  0  0  0  0  0  0  0  0  0
  -13.9260   -5.8910    0.3320 C   0  0  0  0  0  0  0  0  0  0  0  0
  -16.2810  -14.3320    0.9030 C   0  0  0  0  0  0  0  0  0  0  0  0
  -15.1720  -15.2710    1.9770 S   0  0  0  0  0  0  0  0  0  0  0  0
  -13.8980  -14.6170    2.0210 O   0  0  0  0  0  0  0  0  0  0  0  0
  -15.1470  -16.6170    1.5130 O   0  0  0  0  0  0  0  0  0  0  0  0
  -16.0290  -15.1710    3.6670 C   0  0  0  0  0  0  0  0  0  0  0  0
  -16.1060  -13.9160    4.1670 F   0  0  0  0  0  0  0  0  0  0  0  0
  -15.4270  -15.8890    4.6430 F   0  0  0  0  0  0  0  0  0  0  0  0
  -17.3110  -15.6110    3.6550 F   0  0  0  0  0  0  0  0  0  0  0  0
  -17.2930  -15.0010    0.2080 C   0  0  0  0  0  0  0  0  0  0  0  0
  -23.2130  -15.0140   -1.0470 C   0  0  0  0  0  0  0  0  0  0  0  0
  -24.5050  -14.6290   -1.3730 C   0  0  0  0  0  0  0  0  0  0  0  0
  -27.3170  -12.6440    0.0480 C   0  0  0  0  0  0  0  0  0  0  0  0
  -28.7820  -12.8950   -0.3880 C   0  0  0  0  0  0  0  0  0  0  0  0
  -31.0460  -10.0330   -1.7150 C   0  0  0  0  0  0  0  0  0  0  0  0
  -32.6660   -7.0950   -0.8780 H   0  0  0  0  0  0  0  0  0  0  0  0
  -31.7710   -7.4850   -2.3660 H   0  0  0  0  0  0  0  0  0  0  0  0
  -30.9270   -7.4660   -0.7990 H   0  0  0  0  0  0  0  0  0  0  0  0
  -34.3100   -8.8480   -1.4010 H   0  0  0  0  0  0  0  0  0  0  0  0
  -33.7820  -10.5070   -1.7700 H   0  0  0  0  0  0  0  0  0  0  0  0
  -33.4100   -9.1830   -2.8990 H   0  0  0  0  0  0  0  0  0  0  0  0
  -31.2870   -9.2920    0.8540 H   0  0  0  0  0  0  0  0  0  0  0  0
  -32.9900   -8.7750    0.8580 H   0  0  0  0  0  0  0  0  0  0  0  0
  -33.7670  -11.0140    0.4260 H   0  0  0  0  0  0  0  0  0  0  0  0
  -32.5530  -11.1510    1.7210 H   0  0  0  0  0  0  0  0  0  0  0  0
  -31.0040  -13.0180    2.0880 H   0  0  0  0  0  0  0  0  0  0  0  0
  -31.1490  -15.3920    2.7310 H   0  0  0  0  0  0  0  0  0  0  0  0
  -33.2670  -16.2440   -0.8990 H   0  0  0  0  0  0  0  0  0  0  0  0
  -33.1230  -13.8680   -1.5400 H   0  0  0  0  0  0  0  0  0  0  0  0
  -30.5510  -12.2890   -3.1730 H   0  0  0  0  0  0  0  0  0  0  0  0
  -30.7070  -13.5060   -1.8830 H   0  0  0  0  0  0  0  0  0  0  0  0
  -28.7880  -11.2780   -1.7110 H   0  0  0  0  0  0  0  0  0  0  0  0
  -28.3500  -14.0440   -2.7060 H   0  0  0  0  0  0  0  0  0  0  0  0
  -28.3270  -12.5870   -3.7270 H   0  0  0  0  0  0  0  0  0  0  0  0
  -26.4150  -11.6750   -2.3840 H   0  0  0  0  0  0  0  0  0  0  0  0
  -25.9950  -13.2690   -3.0550 H   0  0  0  0  0  0  0  0  0  0  0  0
  -24.9510  -12.2130    0.9820 H   0  0  0  0  0  0  0  0  0  0  0  0
  -22.6590  -12.9010    1.5520 H   0  0  0  0  0  0  0  0  0  0  0  0
  -20.5860  -16.7730    0.0080 H   0  0  0  0  0  0  0  0  0  0  0  0
  -18.7840  -12.3810   -1.3310 H   0  0  0  0  0  0  0  0  0  0  0  0
  -16.9740  -11.1760   -0.1830 H   0  0  0  0  0  0  0  0  0  0  0  0
  -14.8800  -12.4620    2.3300 H   0  0  0  0  0  0  0  0  0  0  0  0
  -14.5910  -11.1000   -0.4120 H   0  0  0  0  0  0  0  0  0  0  0  0
  -12.6960  -11.5030    1.9470 H   0  0  0  0  0  0  0  0  0  0  0  0
  -12.7540  -12.5870    0.5360 H   0  0  0  0  0  0  0  0  0  0  0  0
  -12.1490   -9.5830    0.4690 H   0  0  0  0  0  0  0  0  0  0  0  0
  -12.2570  -10.6370   -0.9610 H   0  0  0  0  0  0  0  0  0  0  0  0
  -10.6090  -11.5210    1.2690 H   0  0  0  0  0  0  0  0  0  0  0  0
   -9.7120   -9.5630   -0.7800 H   0  0  0  0  0  0  0  0  0  0  0  0
  -10.0650   -9.1220    0.9080 H   0  0  0  0  0  0  0  0  0  0  0  0
   -8.3330  -10.7440    1.7020 H   0  0  0  0  0  0  0  0  0  0  0  0
   -7.6050   -9.5800    0.5680 H   0  0  0  0  0  0  0  0  0  0  0  0
   -5.9070   -9.6680   -0.9290 H   0  0  0  0  0  0  0  0  0  0  0  0
   -5.5480  -10.5060    0.5990 H   0  0  0  0  0  0  0  0  0  0  0  0
   -3.9220  -11.9560   -0.6050 H   0  0  0  0  0  0  0  0  0  0  0  0
   -4.2520  -11.0520   -2.1030 H   0  0  0  0  0  0  0  0  0  0  0  0
   -3.4750   -8.9700   -1.0350 H   0  0  0  0  0  0  0  0  0  0  0  0
   -3.1830   -9.8460    0.4870 H   0  0  0  0  0  0  0  0  0  0  0  0
   -1.7790  -10.3640   -2.1720 H   0  0  0  0  0  0  0  0  0  0  0  0
   -1.4970  -11.2640   -0.6620 H   0  0  0  0  0  0  0  0  0  0  0  0
   -0.8050   -9.1590    0.4560 H   0  0  0  0  0  0  0  0  0  0  0  0
   -1.0720   -8.2700   -1.0630 H   0  0  0  0  0  0  0  0  0  0  0  0
    0.7090   -9.6070   -2.1640 H   0  0  0  0  0  0  0  0  0  0  0  0
    0.9690  -10.5120   -0.6530 H   0  0  0  0  0  0  0  0  0  0  0  0
    1.0070   -7.7870    0.0640 H   0  0  0  0  0  0  0  0  0  0  0  0
    3.2140  -10.4150   -1.0890 H   0  0  0  0  0  0  0  0  0  0  0  0
    5.5990  -10.0640   -1.6350 H   0  0  0  0  0  0  0  0  0  0  0  0
    6.5410   -7.7680   -1.7410 H   0  0  0  0  0  0  0  0  0  0  0  0
    4.4730   -2.8340   -1.2830 H   0  0  0  0  0  0  0  0  0  0  0  0
    2.2330   -3.3710    0.7640 H   0  0  0  0  0  0  0  0  0  0  0  0
    3.9410   -3.0470    1.1470 H   0  0  0  0  0  0  0  0  0  0  0  0
    3.7580   -0.8110    0.0070 H   0  0  0  0  0  0  0  0  0  0  0  0
    2.5870   -0.9460    1.3410 H   0  0  0  0  0  0  0  0  0  0  0  0
    0.9250   -1.6360   -2.4200 H   0  0  0  0  0  0  0  0  0  0  0  0
   -8.5740  -13.3470   -1.1220 H   0  0  0  0  0  0  0  0  0  0  0  0
   -8.9640  -13.1810    0.6070 H   0  0  0  0  0  0  0  0  0  0  0  0
  -11.0240  -12.8650   -0.7670 H   0  0  0  0  0  0  0  0  0  0  0  0
  -10.2260  -11.5600   -1.6770 H   0  0  0  0  0  0  0  0  0  0  0  0
  -14.3300   -9.6960    2.2300 H   0  0  0  0  0  0  0  0  0  0  0  0
  -15.9210   -9.8540    1.4490 H   0  0  0  0  0  0  0  0  0  0  0  0
  -15.4780   -7.7780    2.6940 H   0  0  0  0  0  0  0  0  0  0  0  0
  -15.4890   -5.6000    3.8520 H   0  0  0  0  0  0  0  0  0  0  0  0
  -14.5060   -3.6080    2.7690 H   0  0  0  0  0  0  0  0  0  0  0  0
  -13.5200   -3.7940    0.5090 H   0  0  0  0  0  0  0  0  0  0  0  0
  -13.4960   -5.9660   -0.6560 H   0  0  0  0  0  0  0  0  0  0  0  0
  -17.3670  -16.0750    0.2910 H   0  0  0  0  0  0  0  0  0  0  0  0
  -22.7290  -15.7920   -1.6190 H   0  0  0  0  0  0  0  0  0  0  0  0
  -25.0210  -15.1080   -2.1920 H   0  0  0  0  0  0  0  0  0  0  0  0
  -27.1310  -13.1000    1.0200 H   0  0  0  0  0  0  0  0  0  0  0  0
  -27.1200  -11.5730    0.1050 H   0  0  0  0  0  0  0  0  0  0  0  0
  -29.4620  -12.4520    0.3400 H   0  0  0  0  0  0  0  0  0  0  0  0
  -28.9670  -13.9670   -0.4510 H   0  0  0  0  0  0  0  0  0  0  0  0
  -30.0890   -9.6340   -1.3790 H   0  0  0  0  0  0  0  0  0  0  0  0
  -31.0990   -9.9840   -2.8030 H   0  0  0  0  0  0  0  0  0  0  0  0
  1  2  1  0  0  0  0
  1 94  1  0  0  0  0
  1 95  1  0  0  0  0
  1 96  1  0  0  0  0
  2  3  1  0  0  0  0
  2  4  1  0  0  0  0
  2 93  1  0  0  0  0
  3 97  1  0  0  0  0
  3 98  1  0  0  0  0
  3 99  1  0  0  0  0
  4  5  1  0  0  0  0
  4100  1  0  0  0  0
  4101  1  0  0  0  0
  5  6  1  0  0  0  0
  5102  1  0  0  0  0
  5103  1  0  0  0  0
  6  7  1  0  0  0  0
  6 14  2  0  0  0  0
  7  8  1  0  0  0  0
  7 13  2  0  0  0  0
  8  9  2  0  0  0  0
  8104  1  0  0  0  0
  9 10  1  0  0  0  0
  9105  1  0  0  0  0
 10 11  1  0  0  0  0
 10 12  2  0  0  0  0
 12 13  1  0  0  0  0
 12106  1  0  0  0  0
 13107  1  0  0  0  0
 14 15  1  0  0  0  0
 14 93  1  0  0  0  0
 15 16  1  0  0  0  0
 15108  1  0  0  0  0
 15109  1  0  0  0  0
 16 17  1  0  0  0  0
 16 92  1  0  0  0  0
 16110  1  0  0  0  0
 17 18  1  0  0  0  0
 17111  1  0  0  0  0
 17112  1  0  0  0  0
 18 19  1  0  0  0  0
 18113  1  0  0  0  0
 18114  1  0  0  0  0
 19 20  1  0  0  0  0
 19 91  1  0  0  0  0
 20 21  1  0  0  0  0
 20 90  2  0  0  0  0
 21 22  2  0  0  0  0
 21115  1  0  0  0  0
 22 23  1  0  0  0  0
 22116  1  0  0  0  0
 23 24  1  0  0  0  0
 23 89  2  0  0  0  0
 24 25  2  0  0  0  0
 24 26  1  0  0  0  0
 26 27  1  0  0  0  0
 26117  1  0  0  0  0
 27 28  2  0  0  0  0
 27 29  2  0  0  0  0
 27 30  1  0  0  0  0
 30 31  1  0  0  0  0
 30 88  2  0  0  0  0
 31 32  2  0  0  0  0
 31118  1  0  0  0  0
 32 33  1  0  0  0  0
 32119  1  0  0  0  0
 33 34  1  0  0  0  0
 33 80  2  0  0  0  0
 34 35  1  0  0  0  0
 34120  1  0  0  0  0
 35 36  1  0  0  0  0
 35 72  1  0  0  0  0
 35121  1  0  0  0  0
 36 37  1  0  0  0  0
 36122  1  0  0  0  0
 36123  1  0  0  0  0
 37 38  1  0  0  0  0
 37124  1  0  0  0  0
 37125  1  0  0  0  0
 38 39  1  0  0  0  0
 38 71  1  0  0  0  0
 38126  1  0  0  0  0
 39 40  1  0  0  0  0
 39127  1  0  0  0  0
 39128  1  0  0  0  0
 40 41  1  0  0  0  0
 40129  1  0  0  0  0
 40130  1  0  0  0  0
 41 42  1  0  0  0  0
 41 70  1  0  0  0  0
 42 43  2  0  0  0  0
 42 44  1  0  0  0  0
 44 45  1  0  0  0  0
 44131  1  0  0  0  0
 44132  1  0  0  0  0
 45 46  1  0  0  0  0
 45133  1  0  0  0  0
 45134  1  0  0  0  0
 46 47  1  0  0  0  0
 46135  1  0  0  0  0
 46136  1  0  0  0  0
 47 48  1  0  0  0  0
 47137  1  0  0  0  0
 47138  1  0  0  0  0
 48 49  1  0  0  0  0
 48139  1  0  0  0  0
 48140  1  0  0  0  0
 49 50  1  0  0  0  0
 49141  1  0  0  0  0
 49142  1  0  0  0  0
 50 51  1  0  0  0  0
 50143  1  0  0  0  0
 51 52  1  0  0  0  0
 51 56  2  0  0  0  0
 52 53  2  0  0  0  0
 52144  1  0  0  0  0
 53 54  1  0  0  0  0
 53145  1  0  0  0  0
 54 55  2  0  0  0  0
 54146  1  0  0  0  0
 55 56  1  0  0  0  0
 55 68  1  0  0  0  0
 56 57  1  0  0  0  0
 57 58  2  0  0  0  0
 57 59  1  0  0  0  0
 59 60  1  0  0  0  0
 59 68  1  0  0  0  0
 60 61  1  0  0  0  0
 60 66  1  0  0  0  0
 60147  1  0  0  0  0
 61 62  1  0  0  0  0
 61148  1  0  0  0  0
 61149  1  0  0  0  0
 62 63  1  0  0  0  0
 62150  1  0  0  0  0
 62151  1  0  0  0  0
 63 64  2  0  0  0  0
 63 65  1  0  0  0  0
 65 66  1  0  0  0  0
 65152  1  0  0  0  0
 66 67  2  0  0  0  0
 68 69  2  0  0  0  0
 70 71  1  0  0  0  0
 70153  1  0  0  0  0
 70154  1  0  0  0  0
 71155  1  0  0  0  0
 71156  1  0  0  0  0
 72 73  1  0  0  0  0
 72157  1  0  0  0  0
 72158  1  0  0  0  0
 73 74  1  0  0  0  0
 74 75  1  0  0  0  0
 74 79  2  0  0  0  0
 75 76  2  0  0  0  0
 75159  1  0  0  0  0
 76 77  1  0  0  0  0
 76160  1  0  0  0  0
 77 78  2  0  0  0  0
 77161  1  0  0  0  0
 78 79  1  0  0  0  0
 78162  1  0  0  0  0
 79163  1  0  0  0  0
 80 81  1  0  0  0  0
 80 88  1  0  0  0  0
 81 82  2  0  0  0  0
 81 83  2  0  0  0  0
 81 84  1  0  0  0  0
 84 85  1  0  0  0  0
 84 86  1  0  0  0  0
 84 87  1  0  0  0  0
 88164  1  0  0  0  0
 89 90  1  0  0  0  0
 89165  1  0  0  0  0
 90166  1  0  0  0  0
 91 92  1  0  0  0  0
 91167  1  0  0  0  0
 91168  1  0  0  0  0
 92169  1  0  0  0  0
 92170  1  0  0  0  0
 93171  1  0  0  0  0
 93172  1  0  0  0  0
M  CHG  1  16   1
M  CHG  1  38   1
M  END
>  <Compound ID>
645

>  <Uniprot>
Q07817

>  <Target>
BCL-xL

>  <E3 ligase>
CRBN

>  <IC50 (nM, Cellular activities)>
>2000

>  <Assay (Cellular activities, IC50)>
Inhibit viability of MOLT-4 cells

>  <Article DOI>
10.1016/j.ejmech.2020.112186

>  <Molecular Weight>
1357.054

>  <Exact Mass>
1355.4596

>  <XLogP3>
11.2

>  <Heavy Atom Count>
93

>  <Ring Count>
10

>  <Hydrogen Bond Acceptor Count>
16

>  <Hydrogen Bond Donor Count>
4

>  <Rotatable Bond Count>
25

>  <Topological Polar Surface Area>
235.02

>  <Molecular Formula>
C67H77ClF3N9O10S3

>  <InChI>
InChI=1S/C67H77ClF3N9O10S3/c1-66(2)30-28-53(45-16-20-48(68)21-17-45)47(42-66)43-77-35-37-78(38-36-77)50-22-18-46(19-23-50)62(83)75-93(89,90)52-24-25-55(58(41-52)92(87,88)67(69,70)71)73-49(44-91-51-11-6-5-7-12-51)29-32-76-33-39-79(40-34-76)60(82)15-8-3-4-9-31-72-56-14-10-13-54-61(56)65(86)80(64(54)85)57-26-27-59(81)74-63(57)84/h5-7,10-14,16-25,41,49,57,72-73H,3-4,8-9,15,26-40,42-44H2,1-2H3,(H,75,83)(H,74,81,84)/t49-,57?/m1/s1

>  <InChI Key>
VEDAFKYSIRBOFV-LKVFYHIZSA-N

$$$$
646
  MOE2018           3D

175184  0  0  1  0  0  0  0  0999 V2000
  -32.3890    8.9970    0.0640 C   0  0  0  0  0  0  0  0  0  0  0  0
  -33.7470    9.7250    0.0700 C   0  0  0  0  0  0  0  0  0  0  0  0
  -34.8310    8.6500    0.2660 C   0  0  0  0  0  0  0  0  0  0  0  0
  -33.9420   10.3990   -1.3250 C   0  0  0  0  0  0  0  0  0  0  0  0
  -34.6320   11.7720   -1.1850 C   0  0  0  0  0  0  0  0  0  0  0  0
  -33.6830   12.5900   -0.3270 C   0  0  0  0  0  0  0  0  0  0  0  0
  -33.2720   13.8990   -0.8250 C   0  0  0  0  0  0  0  0  0  0  0  0
  -32.5880   14.0140   -2.0430 C   0  0  0  0  0  0  0  0  0  0  0  0
  -32.1640   15.2540   -2.5040 C   0  0  0  0  0  0  0  0  0  0  0  0
  -32.4280   16.4020   -1.7560 C   0  0  0  0  0  0  0  0  0  0  0  0
  -31.8860   17.9480   -2.3200 Cl  0  0  0  0  0  0  0  0  0  0  0  0
  -33.1310   16.3050   -0.5540 C   0  0  0  0  0  0  0  0  0  0  0  0
  -33.5540   15.0630   -0.0970 C   0  0  0  0  0  0  0  0  0  0  0  0
  -33.2640   12.0610    0.8430 C   0  0  0  0  0  0  0  0  0  0  0  0
  -32.2910   12.7540    1.7710 C   0  0  0  0  0  0  0  0  0  0  0  0
  -31.0520   12.0320    1.5030 N   0  3  0  0  0  0  0  0  0  0  0  0
  -30.3800   12.6880    0.3300 C   0  0  0  0  0  0  0  0  0  0  0  0
  -29.0830   11.9080   -0.0070 C   0  0  0  0  0  0  0  0  0  0  0  0
  -28.2290   11.9350    1.2090 N   0  0  0  0  0  0  0  0  0  0  0  0
  -26.8500   11.7150    1.0730 C   0  0  0  0  0  0  0  0  0  0  0  0
  -26.3150   11.0550   -0.0430 C   0  0  0  0  0  0  0  0  0  0  0  0
  -24.9460   10.8400   -0.1290 C   0  0  0  0  0  0  0  0  0  0  0  0
  -24.0790   11.2740    0.8910 C   0  0  0  0  0  0  0  0  0  0  0  0
  -22.6360   11.0220    0.8350 C   0  0  0  0  0  0  0  0  0  0  0  0
  -21.8340   11.3030    1.7110 O   0  0  0  0  0  0  0  0  0  0  0  0
  -22.0640   10.4390   -0.2250 N   0  0  0  0  0  0  0  0  0  0  0  0
  -21.4840   11.5570   -1.2860 S   0  0  0  0  0  0  0  0  0  0  0  0
  -21.4580   10.9540   -2.5640 O   0  0  0  0  0  0  0  0  0  0  0  0
  -22.2550   12.7400   -1.1720 O   0  0  0  0  0  0  0  0  0  0  0  0
  -19.7880   11.8910   -0.7430 C   0  0  0  0  0  0  0  0  0  0  0  0
  -19.5260   12.8790    0.2090 C   0  0  0  0  0  0  0  0  0  0  0  0
  -18.2270   13.1400    0.6210 C   0  0  0  0  0  0  0  0  0  0  0  0
  -17.1590   12.4310    0.0670 C   0  0  0  0  0  0  0  0  0  0  0  0
  -15.8710   12.7790    0.4940 N   0  0  0  0  0  0  0  0  0  0  0  0
  -15.1540   13.7640   -0.3620 C   0  0  2  0  0  0  0  0  0  0  0  0
  -13.7140   13.8380    0.1860 C   0  0  0  0  0  0  0  0  0  0  0  0
  -13.0070   12.5550   -0.2650 C   0  0  0  0  0  0  0  0  0  0  0  0
  -11.6210   12.6640    0.2340 N   0  3  0  0  0  0  0  0  0  0  0  0
  -11.0640   11.2820    0.3220 C   0  0  0  0  0  0  0  0  0  0  0  0
   -9.6510   11.3640    0.9610 C   0  0  0  0  0  0  0  0  0  0  0  0
   -8.8190   12.2650    0.1120 N   0  0  0  0  0  0  0  0  0  0  0  0
   -7.5320   12.0100   -0.2240 C   0  0  0  0  0  0  0  0  0  0  0  0
   -6.8850   12.8250   -0.8710 O   0  0  0  0  0  0  0  0  0  0  0  0
   -6.8740   10.6850    0.1950 C   0  0  0  0  0  0  0  0  0  0  0  0
   -5.4000   10.5450   -0.2280 C   0  0  0  0  0  0  0  0  0  0  0  0
   -4.8220    9.1950    0.2210 C   0  0  0  0  0  0  0  0  0  0  0  0
   -3.3590    9.0570   -0.2200 C   0  0  0  0  0  0  0  0  0  0  0  0
   -2.7850    7.7060    0.2320 C   0  0  0  0  0  0  0  0  0  0  0  0
   -1.3230    7.5600   -0.2150 C   0  0  0  0  0  0  0  0  0  0  0  0
   -0.7450    6.2190    0.2400 C   0  0  0  0  0  0  0  0  0  0  0  0
    0.6250    6.2230   -0.2590 N   0  0  0  0  0  0  0  0  0  0  0  0
    1.5350    5.2380    0.1140 C   0  0  0  0  0  0  0  0  0  0  0  0
    1.1290    3.9250    0.4000 C   0  0  0  0  0  0  0  0  0  0  0  0
    2.0770    2.9620    0.7580 C   0  0  0  0  0  0  0  0  0  0  0  0
    3.4350    3.2910    0.8310 C   0  0  0  0  0  0  0  0  0  0  0  0
    3.8230    4.5990    0.5410 C   0  0  0  0  0  0  0  0  0  0  0  0
    2.8940    5.5600    0.1900 C   0  0  0  0  0  0  0  0  0  0  0  0
    3.5940    6.7960   -0.0230 C   0  0  0  0  0  0  0  0  0  0  0  0
    3.1570    7.9090   -0.2990 O   0  0  0  0  0  0  0  0  0  0  0  0
    4.9470    6.5620    0.1860 N   0  0  0  0  0  0  0  0  0  0  0  0
    6.0570    7.4980   -0.0420 C   0  0  2  0  0  0  0  0  0  0  0  0
    5.9530    8.6340    1.0090 C   0  0  0  0  0  0  0  0  0  0  0  0
    7.0660    9.6560    0.6790 C   0  0  0  0  0  0  0  0  0  0  0  0
    6.8060   10.1990   -0.7130 C   0  0  0  0  0  0  0  0  0  0  0  0
    7.0050   11.3450   -1.0260 O   0  0  0  0  0  0  0  0  0  0  0  0
    6.3450    9.3740   -1.6870 N   0  0  0  0  0  0  0  0  0  0  0  0
    5.9770    8.0830   -1.4620 C   0  0  0  0  0  0  0  0  0  0  0  0
    5.6460    7.4550   -2.4430 O   0  0  0  0  0  0  0  0  0  0  0  0
    5.1190    5.2360    0.5360 C   0  0  0  0  0  0  0  0  0  0  0  0
    6.2180    4.7700    0.7950 O   0  0  0  0  0  0  0  0  0  0  0  0
   -9.3880   13.6140   -0.1830 C   0  0  0  0  0  0  0  0  0  0  0  0
  -10.8010   13.4090   -0.7780 C   0  0  0  0  0  0  0  0  0  0  0  0
  -15.8560   15.1360   -0.2630 C   0  0  0  0  0  0  0  0  0  0  0  0
  -15.0010   16.2440   -1.4440 S   0  0  0  0  0  0  0  0  0  0  0  0
  -15.5610   17.8660   -1.0930 C   0  0  0  0  0  0  0  0  0  0  0  0
  -16.6770   18.1160   -0.2790 C   0  0  0  0  0  0  0  0  0  0  0  0
  -17.0690   19.4240   -0.0150 C   0  0  0  0  0  0  0  0  0  0  0  0
  -16.3650   20.4930   -0.5620 C   0  0  0  0  0  0  0  0  0  0  0  0
  -15.2650   20.2510   -1.3800 C   0  0  0  0  0  0  0  0  0  0  0  0
  -14.8660   18.9460   -1.6470 C   0  0  0  0  0  0  0  0  0  0  0  0
  -17.3950   11.4000   -0.8570 C   0  0  0  0  0  0  0  0  0  0  0  0
  -16.0770   10.3130   -1.4480 S   0  0  0  0  0  0  0  0  0  0  0  0
  -16.6230    9.4670   -2.4530 O   0  0  0  0  0  0  0  0  0  0  0  0
  -14.9470   11.0900   -1.8570 O   0  0  0  0  0  0  0  0  0  0  0  0
  -15.6430    9.2950    0.0930 C   0  0  0  0  0  0  0  0  0  0  0  0
  -16.7140    8.9490    0.8460 F   0  0  0  0  0  0  0  0  0  0  0  0
  -14.8000    9.9270    0.9610 F   0  0  0  0  0  0  0  0  0  0  0  0
  -15.0130    8.1270   -0.1720 F   0  0  0  0  0  0  0  0  0  0  0  0
  -18.7120   11.1690   -1.2710 C   0  0  0  0  0  0  0  0  0  0  0  0
  -24.6300   11.9530    1.9900 C   0  0  0  0  0  0  0  0  0  0  0  0
  -25.9960   12.1740    2.0820 C   0  0  0  0  0  0  0  0  0  0  0  0
  -28.8590   11.3490    2.4210 C   0  0  0  0  0  0  0  0  0  0  0  0
  -30.1530   12.1600    2.6910 C   0  0  0  0  0  0  0  0  0  0  0  0
  -33.8160   10.7110    1.2810 C   0  0  0  0  0  0  0  0  0  0  0  0
  -32.3480    8.3120   -0.7830 H   0  0  0  0  0  0  0  0  0  0  0  0
  -32.2730    8.4360    0.9910 H   0  0  0  0  0  0  0  0  0  0  0  0
  -31.5850    9.7280   -0.0210 H   0  0  0  0  0  0  0  0  0  0  0  0
  -34.8020    7.9490   -0.5680 H   0  0  0  0  0  0  0  0  0  0  0  0
  -35.8110    9.1250    0.3080 H   0  0  0  0  0  0  0  0  0  0  0  0
  -34.6470    8.1140    1.1970 H   0  0  0  0  0  0  0  0  0  0  0  0
  -32.9680   10.5360   -1.7940 H   0  0  0  0  0  0  0  0  0  0  0  0
  -34.5580    9.7530   -1.9500 H   0  0  0  0  0  0  0  0  0  0  0  0
  -35.6010   11.6680   -0.6960 H   0  0  0  0  0  0  0  0  0  0  0  0
  -34.7660   12.2370   -2.1620 H   0  0  0  0  0  0  0  0  0  0  0  0
  -32.3880   13.1290   -2.6290 H   0  0  0  0  0  0  0  0  0  0  0  0
  -31.6310   15.3290   -3.4400 H   0  0  0  0  0  0  0  0  0  0  0  0
  -33.3460   17.1940    0.0200 H   0  0  0  0  0  0  0  0  0  0  0  0
  -34.1060   14.9940    0.8290 H   0  0  0  0  0  0  0  0  0  0  0  0
  -32.5940   12.6490    2.8130 H   0  0  0  0  0  0  0  0  0  0  0  0
  -32.1940   13.8120    1.5260 H   0  0  0  0  0  0  0  0  0  0  0  0
  -31.2430   11.0580    1.3140 H   0  0  0  0  0  0  0  0  0  0  0  0
  -31.0490   12.6740   -0.5300 H   0  0  0  0  0  0  0  0  0  0  0  0
  -30.1320   13.7190    0.5800 H   0  0  0  0  0  0  0  0  0  0  0  0
  -28.5650   12.3860   -0.8390 H   0  0  0  0  0  0  0  0  0  0  0  0
  -29.3240   10.8790   -0.2720 H   0  0  0  0  0  0  0  0  0  0  0  0
  -26.9670   10.7150   -0.8340 H   0  0  0  0  0  0  0  0  0  0  0  0
  -24.5400   10.3320   -0.9920 H   0  0  0  0  0  0  0  0  0  0  0  0
  -21.9970    9.4400   -0.3580 H   0  0  0  0  0  0  0  0  0  0  0  0
  -20.3440   13.4460    0.6290 H   0  0  0  0  0  0  0  0  0  0  0  0
  -18.0410   13.8930    1.3720 H   0  0  0  0  0  0  0  0  0  0  0  0
  -15.4560   12.3880    1.3280 H   0  0  0  0  0  0  0  0  0  0  0  0
  -15.1510   13.4740   -1.4130 H   0  0  0  0  0  0  0  0  0  0  0  0
  -13.2020   14.7110   -0.2180 H   0  0  0  0  0  0  0  0  0  0  0  0
  -13.7280   13.8970    1.2740 H   0  0  0  0  0  0  0  0  0  0  0  0
  -13.0140   12.4790   -1.3520 H   0  0  0  0  0  0  0  0  0  0  0  0
  -13.4970   11.6810    0.1630 H   0  0  0  0  0  0  0  0  0  0  0  0
  -11.6040   13.1350    1.1270 H   0  0  0  0  0  0  0  0  0  0  0  0
  -11.7130   10.6620    0.9410 H   0  0  0  0  0  0  0  0  0  0  0  0
  -10.9920   10.8500   -0.6760 H   0  0  0  0  0  0  0  0  0  0  0  0
   -9.2030   10.3710    0.9980 H   0  0  0  0  0  0  0  0  0  0  0  0
   -9.7230   11.7680    1.9710 H   0  0  0  0  0  0  0  0  0  0  0  0
   -6.9260   10.6070    1.2810 H   0  0  0  0  0  0  0  0  0  0  0  0
   -7.4370    9.8670   -0.2550 H   0  0  0  0  0  0  0  0  0  0  0  0
   -5.3330   10.6180   -1.3130 H   0  0  0  0  0  0  0  0  0  0  0  0
   -4.8210   11.3490    0.2270 H   0  0  0  0  0  0  0  0  0  0  0  0
   -4.8760    9.1260    1.3070 H   0  0  0  0  0  0  0  0  0  0  0  0
   -5.4070    8.3900   -0.2230 H   0  0  0  0  0  0  0  0  0  0  0  0
   -2.7730    9.8620    0.2240 H   0  0  0  0  0  0  0  0  0  0  0  0
   -3.3040    9.1240   -1.3070 H   0  0  0  0  0  0  0  0  0  0  0  0
   -3.3750    6.9020   -0.2070 H   0  0  0  0  0  0  0  0  0  0  0  0
   -2.8350    7.6420    1.3190 H   0  0  0  0  0  0  0  0  0  0  0  0
   -0.7350    8.3680    0.2190 H   0  0  0  0  0  0  0  0  0  0  0  0
   -1.2750    7.6190   -1.3020 H   0  0  0  0  0  0  0  0  0  0  0  0
   -1.3090    5.3910   -0.1890 H   0  0  0  0  0  0  0  0  0  0  0  0
   -0.7590    6.1430    1.3270 H   0  0  0  0  0  0  0  0  0  0  0  0
    0.9200    6.9560   -0.8880 H   0  0  0  0  0  0  0  0  0  0  0  0
    0.0840    3.6590    0.3430 H   0  0  0  0  0  0  0  0  0  0  0  0
    1.7580    1.9540    0.9800 H   0  0  0  0  0  0  0  0  0  0  0  0
    4.1680    2.5470    1.1060 H   0  0  0  0  0  0  0  0  0  0  0  0
    7.0100    6.9790    0.0570 H   0  0  0  0  0  0  0  0  0  0  0  0
    4.9750    9.1120    0.9480 H   0  0  0  0  0  0  0  0  0  0  0  0
    6.0990    8.2320    2.0110 H   0  0  0  0  0  0  0  0  0  0  0  0
    8.0390    9.1660    0.7090 H   0  0  0  0  0  0  0  0  0  0  0  0
    7.0470   10.4700    1.4030 H   0  0  0  0  0  0  0  0  0  0  0  0
    6.2710    9.7360   -2.6270 H   0  0  0  0  0  0  0  0  0  0  0  0
   -9.4530   14.1980    0.7350 H   0  0  0  0  0  0  0  0  0  0  0  0
   -8.7550   14.1350   -0.9010 H   0  0  0  0  0  0  0  0  0  0  0  0
  -10.7350   12.8310   -1.7000 H   0  0  0  0  0  0  0  0  0  0  0  0
  -11.2590   14.3760   -0.9870 H   0  0  0  0  0  0  0  0  0  0  0  0
  -15.7730   15.5290    0.7500 H   0  0  0  0  0  0  0  0  0  0  0  0
  -16.9080   15.0410   -0.5300 H   0  0  0  0  0  0  0  0  0  0  0  0
  -17.2320   17.2910    0.1430 H   0  0  0  0  0  0  0  0  0  0  0  0
  -17.9240   19.6110    0.6180 H   0  0  0  0  0  0  0  0  0  0  0  0
  -16.6710   21.5070   -0.3520 H   0  0  0  0  0  0  0  0  0  0  0  0
  -14.7200   21.0790   -1.8080 H   0  0  0  0  0  0  0  0  0  0  0  0
  -14.0140   18.7650   -2.2860 H   0  0  0  0  0  0  0  0  0  0  0  0
  -18.9030   10.4130   -2.0180 H   0  0  0  0  0  0  0  0  0  0  0  0
  -23.9800   12.3090    2.7760 H   0  0  0  0  0  0  0  0  0  0  0  0
  -26.4010   12.7010    2.9330 H   0  0  0  0  0  0  0  0  0  0  0  0
  -29.1030   10.3010    2.2480 H   0  0  0  0  0  0  0  0  0  0  0  0
  -28.1820   11.4290    3.2720 H   0  0  0  0  0  0  0  0  0  0  0  0
  -29.9030   13.2090    2.8510 H   0  0  0  0  0  0  0  0  0  0  0  0
  -30.6550   11.7670    3.5750 H   0  0  0  0  0  0  0  0  0  0  0  0
  -33.2200   10.3210    2.1060 H   0  0  0  0  0  0  0  0  0  0  0  0
  -34.8510   10.8250    1.6030 H   0  0  0  0  0  0  0  0  0  0  0  0
  1  2  1  0  0  0  0
  1 95  1  0  0  0  0
  1 96  1  0  0  0  0
  1 97  1  0  0  0  0
  2  3  1  0  0  0  0
  2  4  1  0  0  0  0
  2 94  1  0  0  0  0
  3 98  1  0  0  0  0
  3 99  1  0  0  0  0
  3100  1  0  0  0  0
  4  5  1  0  0  0  0
  4101  1  0  0  0  0
  4102  1  0  0  0  0
  5  6  1  0  0  0  0
  5103  1  0  0  0  0
  5104  1  0  0  0  0
  6  7  1  0  0  0  0
  6 14  2  0  0  0  0
  7  8  1  0  0  0  0
  7 13  2  0  0  0  0
  8  9  2  0  0  0  0
  8105  1  0  0  0  0
  9 10  1  0  0  0  0
  9106  1  0  0  0  0
 10 11  1  0  0  0  0
 10 12  2  0  0  0  0
 12 13  1  0  0  0  0
 12107  1  0  0  0  0
 13108  1  0  0  0  0
 14 15  1  0  0  0  0
 14 94  1  0  0  0  0
 15 16  1  0  0  0  0
 15109  1  0  0  0  0
 15110  1  0  0  0  0
 16 17  1  0  0  0  0
 16 93  1  0  0  0  0
 16111  1  0  0  0  0
 17 18  1  0  0  0  0
 17112  1  0  0  0  0
 17113  1  0  0  0  0
 18 19  1  0  0  0  0
 18114  1  0  0  0  0
 18115  1  0  0  0  0
 19 20  1  0  0  0  0
 19 92  1  0  0  0  0
 20 21  1  0  0  0  0
 20 91  2  0  0  0  0
 21 22  2  0  0  0  0
 21116  1  0  0  0  0
 22 23  1  0  0  0  0
 22117  1  0  0  0  0
 23 24  1  0  0  0  0
 23 90  2  0  0  0  0
 24 25  2  0  0  0  0
 24 26  1  0  0  0  0
 26 27  1  0  0  0  0
 26118  1  0  0  0  0
 27 28  2  0  0  0  0
 27 29  2  0  0  0  0
 27 30  1  0  0  0  0
 30 31  1  0  0  0  0
 30 89  2  0  0  0  0
 31 32  2  0  0  0  0
 31119  1  0  0  0  0
 32 33  1  0  0  0  0
 32120  1  0  0  0  0
 33 34  1  0  0  0  0
 33 81  2  0  0  0  0
 34 35  1  0  0  0  0
 34121  1  0  0  0  0
 35 36  1  0  0  0  0
 35 73  1  0  0  0  0
 35122  1  0  0  0  0
 36 37  1  0  0  0  0
 36123  1  0  0  0  0
 36124  1  0  0  0  0
 37 38  1  0  0  0  0
 37125  1  0  0  0  0
 37126  1  0  0  0  0
 38 39  1  0  0  0  0
 38 72  1  0  0  0  0
 38127  1  0  0  0  0
 39 40  1  0  0  0  0
 39128  1  0  0  0  0
 39129  1  0  0  0  0
 40 41  1  0  0  0  0
 40130  1  0  0  0  0
 40131  1  0  0  0  0
 41 42  1  0  0  0  0
 41 71  1  0  0  0  0
 42 43  2  0  0  0  0
 42 44  1  0  0  0  0
 44 45  1  0  0  0  0
 44132  1  0  0  0  0
 44133  1  0  0  0  0
 45 46  1  0  0  0  0
 45134  1  0  0  0  0
 45135  1  0  0  0  0
 46 47  1  0  0  0  0
 46136  1  0  0  0  0
 46137  1  0  0  0  0
 47 48  1  0  0  0  0
 47138  1  0  0  0  0
 47139  1  0  0  0  0
 48 49  1  0  0  0  0
 48140  1  0  0  0  0
 48141  1  0  0  0  0
 49 50  1  0  0  0  0
 49142  1  0  0  0  0
 49143  1  0  0  0  0
 50 51  1  0  0  0  0
 50144  1  0  0  0  0
 50145  1  0  0  0  0
 51 52  1  0  0  0  0
 51146  1  0  0  0  0
 52 53  1  0  0  0  0
 52 57  2  0  0  0  0
 53 54  2  0  0  0  0
 53147  1  0  0  0  0
 54 55  1  0  0  0  0
 54148  1  0  0  0  0
 55 56  2  0  0  0  0
 55149  1  0  0  0  0
 56 57  1  0  0  0  0
 56 69  1  0  0  0  0
 57 58  1  0  0  0  0
 58 59  2  0  0  0  0
 58 60  1  0  0  0  0
 60 61  1  0  0  0  0
 60 69  1  0  0  0  0
 61 62  1  0  0  0  0
 61 67  1  0  0  0  0
 61150  1  0  0  0  0
 62 63  1  0  0  0  0
 62151  1  0  0  0  0
 62152  1  0  0  0  0
 63 64  1  0  0  0  0
 63153  1  0  0  0  0
 63154  1  0  0  0  0
 64 65  2  0  0  0  0
 64 66  1  0  0  0  0
 66 67  1  0  0  0  0
 66155  1  0  0  0  0
 67 68  2  0  0  0  0
 69 70  2  0  0  0  0
 71 72  1  0  0  0  0
 71156  1  0  0  0  0
 71157  1  0  0  0  0
 72158  1  0  0  0  0
 72159  1  0  0  0  0
 73 74  1  0  0  0  0
 73160  1  0  0  0  0
 73161  1  0  0  0  0
 74 75  1  0  0  0  0
 75 76  1  0  0  0  0
 75 80  2  0  0  0  0
 76 77  2  0  0  0  0
 76162  1  0  0  0  0
 77 78  1  0  0  0  0
 77163  1  0  0  0  0
 78 79  2  0  0  0  0
 78164  1  0  0  0  0
 79 80  1  0  0  0  0
 79165  1  0  0  0  0
 80166  1  0  0  0  0
 81 82  1  0  0  0  0
 81 89  1  0  0  0  0
 82 83  2  0  0  0  0
 82 84  2  0  0  0  0
 82 85  1  0  0  0  0
 85 86  1  0  0  0  0
 85 87  1  0  0  0  0
 85 88  1  0  0  0  0
 89167  1  0  0  0  0
 90 91  1  0  0  0  0
 90168  1  0  0  0  0
 91169  1  0  0  0  0
 92 93  1  0  0  0  0
 92170  1  0  0  0  0
 92171  1  0  0  0  0
 93172  1  0  0  0  0
 93173  1  0  0  0  0
 94174  1  0  0  0  0
 94175  1  0  0  0  0
M  CHG  1  16   1
M  CHG  1  38   1
M  END
>  <Compound ID>
646

>  <Uniprot>
Q07817

>  <Target>
BCL-xL

>  <E3 ligase>
CRBN

>  <IC50 (nM, Cellular activities)>
>2000

>  <Assay (Cellular activities, IC50)>
Inhibit viability of MOLT-4 cells

>  <Article DOI>
10.1016/j.ejmech.2020.112186

>  <Molecular Weight>
1371.0811

>  <Exact Mass>
1369.4752

>  <XLogP3>
11.74

>  <Heavy Atom Count>
94

>  <Ring Count>
10

>  <Hydrogen Bond Acceptor Count>
16

>  <Hydrogen Bond Donor Count>
4

>  <Rotatable Bond Count>
26

>  <Topological Polar Surface Area>
235.02

>  <Molecular Formula>
C68H79ClF3N9O10S3

>  <InChI>
InChI=1S/C68H79ClF3N9O10S3/c1-67(2)31-29-54(46-17-21-49(69)22-18-46)48(43-67)44-78-36-38-79(39-37-78)51-23-19-47(20-24-51)63(84)76-94(90,91)53-25-26-56(59(42-53)93(88,89)68(70,71)72)74-50(45-92-52-12-7-6-8-13-52)30-33-77-34-40-80(41-35-77)61(83)16-9-4-3-5-10-32-73-57-15-11-14-55-62(57)66(87)81(65(55)86)58-27-28-60(82)75-64(58)85/h6-8,11-15,17-26,42,50,58,73-74H,3-5,9-10,16,27-41,43-45H2,1-2H3,(H,76,84)(H,75,82,85)/t50-,58?/m1/s1

>  <InChI Key>
KISACIPNHFVERP-XIMDYXIDSA-N

$$$$
647
  MOE2018           3D

161170  0  0  1  0  0  0  0  0999 V2000
    5.3240   18.7600    0.8280 C   0  0  0  0  0  0  0  0  0  0  0  0
    6.3650   18.3130   -0.2210 C   0  0  0  0  0  0  0  0  0  0  0  0
    7.0340   19.5920   -0.7550 C   0  0  0  0  0  0  0  0  0  0  0  0
    7.4790   17.4140    0.3510 C   0  0  0  0  0  0  0  0  0  0  0  0
    6.8640   16.1610    1.0070 C   0  0  0  0  0  0  0  0  0  0  0  0
    5.8140   15.5300    0.0960 C   0  0  0  0  0  0  0  0  0  0  0  0
    5.4450   14.1690    0.4700 C   0  0  0  0  0  0  0  0  0  0  0  0
    5.6480   13.1030   -0.4180 C   0  0  0  0  0  0  0  0  0  0  0  0
    5.2700   11.8110   -0.0750 C   0  0  0  0  0  0  0  0  0  0  0  0
    4.6950   11.5620    1.1720 C   0  0  0  0  0  0  0  0  0  0  0  0
    4.2070    9.9550    1.5960 Cl  0  0  0  0  0  0  0  0  0  0  0  0
    4.5130   12.6080    2.0780 C   0  0  0  0  0  0  0  0  0  0  0  0
    4.8910   13.8990    1.7300 C   0  0  0  0  0  0  0  0  0  0  0  0
    5.2540   16.1860   -0.9530 C   0  0  0  0  0  0  0  0  0  0  0  0
    4.1690   15.5690   -1.8120 C   0  0  0  0  0  0  0  0  0  0  0  0
    2.9620   16.2190   -1.3060 N   0  3  0  0  0  0  0  0  0  0  0  0
    1.9190   16.1990   -2.3830 C   0  0  0  0  0  0  0  0  0  0  0  0
    0.6510   16.9250   -1.8610 C   0  0  0  0  0  0  0  0  0  0  0  0
    0.1990   16.1800   -0.6620 N   0  0  0  0  0  0  0  0  0  0  0  0
   -1.1350   16.3030   -0.2550 C   0  0  0  0  0  0  0  0  0  0  0  0
   -1.7010   15.2660    0.4940 C   0  0  0  0  0  0  0  0  0  0  0  0
   -3.0170   15.3590    0.9230 C   0  0  0  0  0  0  0  0  0  0  0  0
   -3.8000   16.4840    0.6160 C   0  0  0  0  0  0  0  0  0  0  0  0
   -5.1790   16.5690    1.1050 C   0  0  0  0  0  0  0  0  0  0  0  0
   -5.7540   15.7080    1.7520 O   0  0  0  0  0  0  0  0  0  0  0  0
   -5.9420   17.6440    0.8850 N   0  0  0  0  0  0  0  0  0  0  0  0
   -6.8810   17.4490   -0.4520 S   0  0  0  0  0  0  0  0  0  0  0  0
   -7.2820   18.7350   -0.8780 O   0  0  0  0  0  0  0  0  0  0  0  0
   -6.1690   16.6720   -1.3990 O   0  0  0  0  0  0  0  0  0  0  0  0
   -8.3310   16.5270    0.1150 C   0  0  0  0  0  0  0  0  0  0  0  0
   -8.4240   15.1470   -0.0770 C   0  0  0  0  0  0  0  0  0  0  0  0
   -9.5400   14.4430    0.3530 C   0  0  0  0  0  0  0  0  0  0  0  0
  -10.5910   15.1140    0.9900 C   0  0  0  0  0  0  0  0  0  0  0  0
  -11.7180   14.4000    1.4240 N   0  0  0  0  0  0  0  0  0  0  0  0
  -12.2330   13.2900    0.6230 C   0  0  2  0  0  0  0  0  0  0  0  0
  -13.7560   13.5020    0.6650 C   0  0  0  0  0  0  0  0  0  0  0  0
  -14.4630   12.4670   -0.2260 C   0  0  0  0  0  0  0  0  0  0  0  0
  -15.8950   12.8030   -0.0820 N   0  0  0  0  0  0  0  0  0  0  0  0
  -16.7450   11.5900   -0.1450 C   0  0  0  0  0  0  0  0  0  0  0  0
  -18.1740   12.0340    0.2610 C   0  0  0  0  0  0  0  0  0  0  0  0
  -18.6660   13.0530   -0.7340 N   0  3  0  0  0  0  0  0  0  0  0  0
  -20.0030   13.5130   -0.3220 C   0  0  0  0  0  0  0  0  0  0  0  0
  -20.9930   12.4680   -0.8530 C   0  0  0  0  0  0  0  0  0  0  0  0
  -22.3890   12.9860   -0.4960 C   0  0  0  0  0  0  0  0  0  0  0  0
  -23.2750   11.9700   -1.0350 N   0  0  0  0  0  0  0  0  0  0  0  0
  -24.6600   12.0800   -0.9270 C   0  0  0  0  0  0  0  0  0  0  0  0
  -25.3260   13.3140   -0.9740 C   0  0  0  0  0  0  0  0  0  0  0  0
  -26.7200   13.3590   -0.8810 C   0  0  0  0  0  0  0  0  0  0  0  0
  -27.4670   12.1830   -0.7460 C   0  0  0  0  0  0  0  0  0  0  0  0
  -26.7920   10.9640   -0.7020 C   0  0  0  0  0  0  0  0  0  0  0  0
  -25.4150   10.9100   -0.7860 C   0  0  0  0  0  0  0  0  0  0  0  0
  -25.0140    9.5370   -0.6800 C   0  0  0  0  0  0  0  0  0  0  0  0
  -23.8830    9.0580   -0.6470 O   0  0  0  0  0  0  0  0  0  0  0  0
  -26.1620    8.7670   -0.5560 N   0  0  0  0  0  0  0  0  0  0  0  0
  -26.2500    7.3010   -0.5470 C   0  0  2  0  0  0  0  0  0  0  0  0
  -25.6060    6.7930    0.7690 C   0  0  0  0  0  0  0  0  0  0  0  0
  -25.6190    5.2470    0.7100 C   0  0  0  0  0  0  0  0  0  0  0  0
  -24.7950    4.8150   -0.4890 C   0  0  0  0  0  0  0  0  0  0  0  0
  -24.0950    3.8360   -0.4940 O   0  0  0  0  0  0  0  0  0  0  0  0
  -24.8420    5.5330   -1.6410 N   0  0  0  0  0  0  0  0  0  0  0  0
  -25.5040    6.7170   -1.7580 C   0  0  0  0  0  0  0  0  0  0  0  0
  -25.4850    7.2210   -2.8590 O   0  0  0  0  0  0  0  0  0  0  0  0
  -27.2630    9.6050   -0.5620 C   0  0  0  0  0  0  0  0  0  0  0  0
  -28.4020    9.1810   -0.4450 O   0  0  0  0  0  0  0  0  0  0  0  0
  -17.7560   14.2430   -0.6770 C   0  0  0  0  0  0  0  0  0  0  0  0
  -16.3340   13.7970   -1.0960 C   0  0  0  0  0  0  0  0  0  0  0  0
  -11.7640   11.9860    1.2930 C   0  0  0  0  0  0  0  0  0  0  0  0
  -11.6270   10.7520   -0.0530 S   0  0  0  0  0  0  0  0  0  0  0  0
  -11.6860    9.1800    0.7140 C   0  0  0  0  0  0  0  0  0  0  0  0
  -11.4650    9.0050    2.0880 C   0  0  0  0  0  0  0  0  0  0  0  0
  -11.5430    7.7360    2.6500 C   0  0  0  0  0  0  0  0  0  0  0  0
  -11.8320    6.6300    1.8550 C   0  0  0  0  0  0  0  0  0  0  0  0
  -12.0380    6.7970    0.4880 C   0  0  0  0  0  0  0  0  0  0  0  0
  -11.9630    8.0630   -0.0810 C   0  0  0  0  0  0  0  0  0  0  0  0
  -10.5130   16.4980    1.2130 C   0  0  0  0  0  0  0  0  0  0  0  0
  -11.8220   17.3980    2.0750 S   0  0  0  0  0  0  0  0  0  0  0  0
  -11.7170   18.7740    1.7200 O   0  0  0  0  0  0  0  0  0  0  0  0
  -13.0840   16.7880    1.7860 O   0  0  0  0  0  0  0  0  0  0  0  0
  -11.3700   17.1580    3.9010 C   0  0  0  0  0  0  0  0  0  0  0  0
  -11.4660   15.8800    4.3340 F   0  0  0  0  0  0  0  0  0  0  0  0
  -10.0930   17.5170    4.1960 F   0  0  0  0  0  0  0  0  0  0  0  0
  -12.1340   17.8670    4.7660 F   0  0  0  0  0  0  0  0  0  0  0  0
   -9.3900   17.1880    0.7460 C   0  0  0  0  0  0  0  0  0  0  0  0
   -3.2200   17.5130   -0.1500 C   0  0  0  0  0  0  0  0  0  0  0  0
   -1.9050   17.4270   -0.5830 C   0  0  0  0  0  0  0  0  0  0  0  0
    1.1960   16.1090    0.4360 C   0  0  0  0  0  0  0  0  0  0  0  0
    2.4550   15.4170   -0.1430 C   0  0  0  0  0  0  0  0  0  0  0  0
    5.6900   17.5810   -1.4000 C   0  0  0  0  0  0  0  0  0  0  0  0
    5.8300   19.2730    1.6460 H   0  0  0  0  0  0  0  0  0  0  0  0
    4.8000   17.8860    1.2150 H   0  0  0  0  0  0  0  0  0  0  0  0
    4.6070   19.4370    0.3630 H   0  0  0  0  0  0  0  0  0  0  0  0
    7.5160   20.1210    0.0680 H   0  0  0  0  0  0  0  0  0  0  0  0
    6.2790   20.2350   -1.2080 H   0  0  0  0  0  0  0  0  0  0  0  0
    7.7810   19.3260   -1.5030 H   0  0  0  0  0  0  0  0  0  0  0  0
    8.1450   17.1080   -0.4560 H   0  0  0  0  0  0  0  0  0  0  0  0
    8.0440   17.9710    1.0980 H   0  0  0  0  0  0  0  0  0  0  0  0
    6.3950   16.4450    1.9490 H   0  0  0  0  0  0  0  0  0  0  0  0
    7.6540   15.4340    1.1990 H   0  0  0  0  0  0  0  0  0  0  0  0
    6.1030   13.2880   -1.3800 H   0  0  0  0  0  0  0  0  0  0  0  0
    5.4210   11.0000   -0.7720 H   0  0  0  0  0  0  0  0  0  0  0  0
    4.0790   12.4140    3.0480 H   0  0  0  0  0  0  0  0  0  0  0  0
    4.7570   14.7040    2.4380 H   0  0  0  0  0  0  0  0  0  0  0  0
    4.1230   14.4890   -1.6740 H   0  0  0  0  0  0  0  0  0  0  0  0
    4.3250   15.7940   -2.8670 H   0  0  0  0  0  0  0  0  0  0  0  0
    3.1610   17.1700   -1.0290 H   0  0  0  0  0  0  0  0  0  0  0  0
    2.2960   16.7110   -3.2680 H   0  0  0  0  0  0  0  0  0  0  0  0
    1.6730   15.1680   -2.6360 H   0  0  0  0  0  0  0  0  0  0  0  0
   -0.1270   16.9170   -2.6240 H   0  0  0  0  0  0  0  0  0  0  0  0
    0.8900   17.9550   -1.5960 H   0  0  0  0  0  0  0  0  0  0  0  0
   -1.1140   14.3930    0.7380 H   0  0  0  0  0  0  0  0  0  0  0  0
   -3.4460   14.5540    1.5020 H   0  0  0  0  0  0  0  0  0  0  0  0
   -5.9420   18.4710    1.4650 H   0  0  0  0  0  0  0  0  0  0  0  0
   -7.6170   14.6210   -0.5660 H   0  0  0  0  0  0  0  0  0  0  0  0
   -9.5980   13.3760    0.1960 H   0  0  0  0  0  0  0  0  0  0  0  0
  -12.1740   14.6520    2.2890 H   0  0  0  0  0  0  0  0  0  0  0  0
  -11.8920   13.2390   -0.4110 H   0  0  0  0  0  0  0  0  0  0  0  0
  -14.1060   13.3920    1.6910 H   0  0  0  0  0  0  0  0  0  0  0  0
  -13.9900   14.5050    0.3070 H   0  0  0  0  0  0  0  0  0  0  0  0
  -14.2640   11.4530    0.1220 H   0  0  0  0  0  0  0  0  0  0  0  0
  -14.1430   12.5640   -1.2640 H   0  0  0  0  0  0  0  0  0  0  0  0
  -16.7490   11.1850   -1.1570 H   0  0  0  0  0  0  0  0  0  0  0  0
  -16.3740   10.8340    0.5470 H   0  0  0  0  0  0  0  0  0  0  0  0
  -18.1510   12.4760    1.2570 H   0  0  0  0  0  0  0  0  0  0  0  0
  -18.8400   11.1710    0.2610 H   0  0  0  0  0  0  0  0  0  0  0  0
  -18.6900   12.6470   -1.6580 H   0  0  0  0  0  0  0  0  0  0  0  0
  -20.0640   13.5750    0.7650 H   0  0  0  0  0  0  0  0  0  0  0  0
  -20.2170   14.4910   -0.7540 H   0  0  0  0  0  0  0  0  0  0  0  0
  -20.8920   12.3660   -1.9340 H   0  0  0  0  0  0  0  0  0  0  0  0
  -20.8150   11.5030   -0.3790 H   0  0  0  0  0  0  0  0  0  0  0  0
  -22.5770   13.9530   -0.9620 H   0  0  0  0  0  0  0  0  0  0  0  0
  -22.5080   13.0740    0.5840 H   0  0  0  0  0  0  0  0  0  0  0  0
  -22.8790   11.1650   -1.4990 H   0  0  0  0  0  0  0  0  0  0  0  0
  -24.7620   14.2290   -1.0820 H   0  0  0  0  0  0  0  0  0  0  0  0
  -27.2270   14.3120   -0.9140 H   0  0  0  0  0  0  0  0  0  0  0  0
  -28.5440   12.2190   -0.6770 H   0  0  0  0  0  0  0  0  0  0  0  0
  -27.2920    6.9860   -0.6070 H   0  0  0  0  0  0  0  0  0  0  0  0
  -24.5810    7.1560    0.8490 H   0  0  0  0  0  0  0  0  0  0  0  0
  -26.1830    7.1400    1.6260 H   0  0  0  0  0  0  0  0  0  0  0  0
  -26.6430    4.8900    0.6030 H   0  0  0  0  0  0  0  0  0  0  0  0
  -25.1860    4.8390    1.6230 H   0  0  0  0  0  0  0  0  0  0  0  0
  -24.3620    5.1700   -2.4520 H   0  0  0  0  0  0  0  0  0  0  0  0
  -18.1150   15.0130   -1.3590 H   0  0  0  0  0  0  0  0  0  0  0  0
  -17.7330   14.6390    0.3380 H   0  0  0  0  0  0  0  0  0  0  0  0
  -15.6570   14.6520   -1.1050 H   0  0  0  0  0  0  0  0  0  0  0  0
  -16.3570   13.3420   -2.0860 H   0  0  0  0  0  0  0  0  0  0  0  0
  -12.4920   11.6580    2.0350 H   0  0  0  0  0  0  0  0  0  0  0  0
  -10.7960   12.1330    1.7730 H   0  0  0  0  0  0  0  0  0  0  0  0
  -11.2340    9.8570    2.7100 H   0  0  0  0  0  0  0  0  0  0  0  0
  -11.3780    7.6070    3.7100 H   0  0  0  0  0  0  0  0  0  0  0  0
  -11.8960    5.6470    2.2970 H   0  0  0  0  0  0  0  0  0  0  0  0
  -12.2570    5.9400   -0.1320 H   0  0  0  0  0  0  0  0  0  0  0  0
  -12.1190    8.1850   -1.1430 H   0  0  0  0  0  0  0  0  0  0  0  0
   -9.3390   18.2590    0.8760 H   0  0  0  0  0  0  0  0  0  0  0  0
   -3.8080   18.3830   -0.4040 H   0  0  0  0  0  0  0  0  0  0  0  0
   -1.4760   18.2240   -1.1710 H   0  0  0  0  0  0  0  0  0  0  0  0
    1.4450   17.1120    0.7810 H   0  0  0  0  0  0  0  0  0  0  0  0
    0.7970   15.5270    1.2670 H   0  0  0  0  0  0  0  0  0  0  0  0
    2.1990   14.4110   -0.4770 H   0  0  0  0  0  0  0  0  0  0  0  0
    3.2260   15.3590    0.6250 H   0  0  0  0  0  0  0  0  0  0  0  0
    6.3970   17.4930   -2.2250 H   0  0  0  0  0  0  0  0  0  0  0  0
    4.8180   18.1470   -1.7270 H   0  0  0  0  0  0  0  0  0  0  0  0
  1  2  1  0  0  0  0
  1 89  1  0  0  0  0
  1 90  1  0  0  0  0
  1 91  1  0  0  0  0
  2  3  1  0  0  0  0
  2  4  1  0  0  0  0
  2 88  1  0  0  0  0
  3 92  1  0  0  0  0
  3 93  1  0  0  0  0
  3 94  1  0  0  0  0
  4  5  1  0  0  0  0
  4 95  1  0  0  0  0
  4 96  1  0  0  0  0
  5  6  1  0  0  0  0
  5 97  1  0  0  0  0
  5 98  1  0  0  0  0
  6  7  1  0  0  0  0
  6 14  2  0  0  0  0
  7  8  1  0  0  0  0
  7 13  2  0  0  0  0
  8  9  2  0  0  0  0
  8 99  1  0  0  0  0
  9 10  1  0  0  0  0
  9100  1  0  0  0  0
 10 11  1  0  0  0  0
 10 12  2  0  0  0  0
 12 13  1  0  0  0  0
 12101  1  0  0  0  0
 13102  1  0  0  0  0
 14 15  1  0  0  0  0
 14 88  1  0  0  0  0
 15 16  1  0  0  0  0
 15103  1  0  0  0  0
 15104  1  0  0  0  0
 16 17  1  0  0  0  0
 16 87  1  0  0  0  0
 16105  1  0  0  0  0
 17 18  1  0  0  0  0
 17106  1  0  0  0  0
 17107  1  0  0  0  0
 18 19  1  0  0  0  0
 18108  1  0  0  0  0
 18109  1  0  0  0  0
 19 20  1  0  0  0  0
 19 86  1  0  0  0  0
 20 21  1  0  0  0  0
 20 85  2  0  0  0  0
 21 22  2  0  0  0  0
 21110  1  0  0  0  0
 22 23  1  0  0  0  0
 22111  1  0  0  0  0
 23 24  1  0  0  0  0
 23 84  2  0  0  0  0
 24 25  2  0  0  0  0
 24 26  1  0  0  0  0
 26 27  1  0  0  0  0
 26112  1  0  0  0  0
 27 28  2  0  0  0  0
 27 29  2  0  0  0  0
 27 30  1  0  0  0  0
 30 31  1  0  0  0  0
 30 83  2  0  0  0  0
 31 32  2  0  0  0  0
 31113  1  0  0  0  0
 32 33  1  0  0  0  0
 32114  1  0  0  0  0
 33 34  1  0  0  0  0
 33 75  2  0  0  0  0
 34 35  1  0  0  0  0
 34115  1  0  0  0  0
 35 36  1  0  0  0  0
 35 67  1  0  0  0  0
 35116  1  0  0  0  0
 36 37  1  0  0  0  0
 36117  1  0  0  0  0
 36118  1  0  0  0  0
 37 38  1  0  0  0  0
 37119  1  0  0  0  0
 37120  1  0  0  0  0
 38 39  1  0  0  0  0
 38 66  1  0  0  0  0
 39 40  1  0  0  0  0
 39121  1  0  0  0  0
 39122  1  0  0  0  0
 40 41  1  0  0  0  0
 40123  1  0  0  0  0
 40124  1  0  0  0  0
 41 42  1  0  0  0  0
 41 65  1  0  0  0  0
 41125  1  0  0  0  0
 42 43  1  0  0  0  0
 42126  1  0  0  0  0
 42127  1  0  0  0  0
 43 44  1  0  0  0  0
 43128  1  0  0  0  0
 43129  1  0  0  0  0
 44 45  1  0  0  0  0
 44130  1  0  0  0  0
 44131  1  0  0  0  0
 45 46  1  0  0  0  0
 45132  1  0  0  0  0
 46 47  1  0  0  0  0
 46 51  2  0  0  0  0
 47 48  2  0  0  0  0
 47133  1  0  0  0  0
 48 49  1  0  0  0  0
 48134  1  0  0  0  0
 49 50  2  0  0  0  0
 49135  1  0  0  0  0
 50 51  1  0  0  0  0
 50 63  1  0  0  0  0
 51 52  1  0  0  0  0
 52 53  2  0  0  0  0
 52 54  1  0  0  0  0
 54 55  1  0  0  0  0
 54 63  1  0  0  0  0
 55 56  1  0  0  0  0
 55 61  1  0  0  0  0
 55136  1  0  0  0  0
 56 57  1  0  0  0  0
 56137  1  0  0  0  0
 56138  1  0  0  0  0
 57 58  1  0  0  0  0
 57139  1  0  0  0  0
 57140  1  0  0  0  0
 58 59  2  0  0  0  0
 58 60  1  0  0  0  0
 60 61  1  0  0  0  0
 60141  1  0  0  0  0
 61 62  2  0  0  0  0
 63 64  2  0  0  0  0
 65 66  1  0  0  0  0
 65142  1  0  0  0  0
 65143  1  0  0  0  0
 66144  1  0  0  0  0
 66145  1  0  0  0  0
 67 68  1  0  0  0  0
 67146  1  0  0  0  0
 67147  1  0  0  0  0
 68 69  1  0  0  0  0
 69 70  1  0  0  0  0
 69 74  2  0  0  0  0
 70 71  2  0  0  0  0
 70148  1  0  0  0  0
 71 72  1  0  0  0  0
 71149  1  0  0  0  0
 72 73  2  0  0  0  0
 72150  1  0  0  0  0
 73 74  1  0  0  0  0
 73151  1  0  0  0  0
 74152  1  0  0  0  0
 75 76  1  0  0  0  0
 75 83  1  0  0  0  0
 76 77  2  0  0  0  0
 76 78  2  0  0  0  0
 76 79  1  0  0  0  0
 79 80  1  0  0  0  0
 79 81  1  0  0  0  0
 79 82  1  0  0  0  0
 83153  1  0  0  0  0
 84 85  1  0  0  0  0
 84154  1  0  0  0  0
 85155  1  0  0  0  0
 86 87  1  0  0  0  0
 86156  1  0  0  0  0
 86157  1  0  0  0  0
 87158  1  0  0  0  0
 87159  1  0  0  0  0
 88160  1  0  0  0  0
 88161  1  0  0  0  0
M  CHG  1  16   1
M  CHG  1  41   1
M  END
>  <Compound ID>
647

>  <Uniprot>
Q07817

>  <Target>
BCL-xL

>  <E3 ligase>
CRBN

>  <IC50 (nM, Cellular activities)>
28.3

>  <Assay (Cellular activities, IC50)>
Inhibit viability of MOLT-4 cells

>  <Article DOI>
10.1016/j.ejmech.2020.112186

>  <Molecular Weight>
1286.963

>  <Exact Mass>
1285.4177

>  <XLogP3>
10.55

>  <Heavy Atom Count>
88

>  <Ring Count>
10

>  <Hydrogen Bond Acceptor Count>
16

>  <Hydrogen Bond Donor Count>
4

>  <Rotatable Bond Count>
22

>  <Topological Polar Surface Area>
217.95

>  <Molecular Formula>
C63H71ClF3N9O9S3

>  <InChI>
InChI=1S/C63H71ClF3N9O9S3/c1-62(2)26-24-50(42-12-16-45(64)17-13-42)44(39-62)40-74-34-36-75(37-35-74)47-18-14-43(15-19-47)58(78)71-88(84,85)49-20-21-52(55(38-49)87(82,83)63(65,66)67)69-46(41-86-48-8-4-3-5-9-48)25-29-73-32-30-72(31-33-73)28-7-27-68-53-11-6-10-51-57(53)61(81)76(60(51)80)54-22-23-56(77)70-59(54)79/h3-6,8-21,38,46,54,68-69H,7,22-37,39-41H2,1-2H3,(H,71,78)(H,70,77,79)/t46-,54?/m1/s1

>  <InChI Key>
MDZKHUBASDDMDH-MFJGLPAGSA-N

$$$$
648
  MOE2018           3D

164173  0  0  1  0  0  0  0  0999 V2000
  -30.4350  -15.0690    0.1820 C   0  0  0  0  0  0  0  0  0  0  0  0
  -30.4000  -13.6340   -0.3740 C   0  0  0  0  0  0  0  0  0  0  0  0
  -31.4170  -13.5830   -1.5340 C   0  0  0  0  0  0  0  0  0  0  0  0
  -30.7390  -12.6800    0.7890 C   0  0  0  0  0  0  0  0  0  0  0  0
  -30.8350  -11.2300    0.2720 C   0  0  0  0  0  0  0  0  0  0  0  0
  -29.6350  -10.8910   -0.6080 C   0  0  0  0  0  0  0  0  0  0  0  0
  -29.4790   -9.4670   -0.8870 C   0  0  0  0  0  0  0  0  0  0  0  0
  -29.1430   -8.5710    0.1370 C   0  0  0  0  0  0  0  0  0  0  0  0
  -28.9550   -7.2210   -0.1340 C   0  0  0  0  0  0  0  0  0  0  0  0
  -29.1140   -6.7450   -1.4360 C   0  0  0  0  0  0  0  0  0  0  0  0
  -28.8630   -5.0660   -1.7810 Cl  0  0  0  0  0  0  0  0  0  0  0  0
  -29.4760   -7.6210   -2.4600 C   0  0  0  0  0  0  0  0  0  0  0  0
  -29.6620   -8.9700   -2.1840 C   0  0  0  0  0  0  0  0  0  0  0  0
  -28.8130  -11.8340   -1.1360 C   0  0  0  0  0  0  0  0  0  0  0  0
  -27.6400  -11.4690   -2.0250 C   0  0  0  0  0  0  0  0  0  0  0  0
  -26.4790  -11.6310   -1.1490 N   0  3  0  0  0  0  0  0  0  0  0  0
  -26.3620  -10.3930   -0.3060 C   0  0  0  0  0  0  0  0  0  0  0  0
  -25.1530  -10.5470    0.6510 C   0  0  0  0  0  0  0  0  0  0  0  0
  -23.9470  -10.7510   -0.1940 N   0  0  0  0  0  0  0  0  0  0  0  0
  -22.7290  -10.4530    0.4320 C   0  0  0  0  0  0  0  0  0  0  0  0
  -21.7630  -11.4400    0.6700 C   0  0  0  0  0  0  0  0  0  0  0  0
  -20.5770  -11.1040    1.3080 C   0  0  0  0  0  0  0  0  0  0  0  0
  -20.3200   -9.7840    1.7170 C   0  0  0  0  0  0  0  0  0  0  0  0
  -19.0620   -9.4590    2.3920 C   0  0  0  0  0  0  0  0  0  0  0  0
  -18.3720  -10.2960    2.9470 O   0  0  0  0  0  0  0  0  0  0  0  0
  -18.6220   -8.1790    2.3600 N   0  0  0  0  0  0  0  0  0  0  0  0
  -17.1990   -7.7330    3.0710 S   0  0  0  0  0  0  0  0  0  0  0  0
  -17.1690   -8.1930    4.4090 O   0  0  0  0  0  0  0  0  0  0  0  0
  -17.0800   -6.3340    2.8890 O   0  0  0  0  0  0  0  0  0  0  0  0
  -15.8860   -8.5500    2.1230 C   0  0  0  0  0  0  0  0  0  0  0  0
  -15.4160   -9.8110    2.4960 C   0  0  0  0  0  0  0  0  0  0  0  0
  -14.3860  -10.4260    1.7990 C   0  0  0  0  0  0  0  0  0  0  0  0
  -13.7810   -9.7710    0.7190 C   0  0  0  0  0  0  0  0  0  0  0  0
  -12.6980  -10.3490    0.0310 N   0  0  0  0  0  0  0  0  0  0  0  0
  -12.0010  -11.5420    0.5260 C   0  0  2  0  0  0  0  0  0  0  0  0
  -10.5530  -11.4150    0.0150 C   0  0  0  0  0  0  0  0  0  0  0  0
   -9.7440  -12.6010    0.5740 C   0  0  0  0  0  0  0  0  0  0  0  0
   -8.3540  -12.4380    0.0970 N   0  0  0  0  0  0  0  0  0  0  0  0
   -7.5680  -11.5710    1.0230 C   0  0  0  0  0  0  0  0  0  0  0  0
   -6.1430  -11.4190    0.4270 C   0  0  0  0  0  0  0  0  0  0  0  0
   -5.5210  -12.7770    0.3760 N   0  3  0  0  0  0  0  0  0  0  0  0
   -4.1460  -12.6280   -0.1200 C   0  0  0  0  0  0  0  0  0  0  0  0
   -3.3910  -13.8590    0.4060 C   0  0  0  0  0  0  0  0  0  0  0  0
   -1.9490  -13.7200   -0.1040 C   0  0  0  0  0  0  0  0  0  0  0  0
   -1.0660  -14.8750    0.3770 C   0  0  0  0  0  0  0  0  0  0  0  0
    0.2180  -14.5990   -0.2400 N   0  0  0  0  0  0  0  0  0  0  0  0
    1.3590  -15.3030    0.1260 C   0  0  0  0  0  0  0  0  0  0  0  0
    1.3200  -16.6530    0.5060 C   0  0  0  0  0  0  0  0  0  0  0  0
    2.5030  -17.3150    0.8490 C   0  0  0  0  0  0  0  0  0  0  0  0
    3.7310  -16.6460    0.8150 C   0  0  0  0  0  0  0  0  0  0  0  0
    3.7530  -15.3050    0.4320 C   0  0  0  0  0  0  0  0  0  0  0  0
    2.5900  -14.6410    0.0980 C   0  0  0  0  0  0  0  0  0  0  0  0
    2.9230  -13.2810   -0.2190 C   0  0  0  0  0  0  0  0  0  0  0  0
    2.1860  -12.3420   -0.5050 O   0  0  0  0  0  0  0  0  0  0  0  0
    4.2990  -13.1440   -0.0980 N   0  0  0  0  0  0  0  0  0  0  0  0
    5.1080  -11.9680   -0.4500 C   0  0  2  0  0  0  0  0  0  0  0  0
    4.7760  -10.8390    0.5600 C   0  0  0  0  0  0  0  0  0  0  0  0
    5.5610   -9.5850    0.1090 C   0  0  0  0  0  0  0  0  0  0  0  0
    5.0840   -9.2080   -1.2810 C   0  0  0  0  0  0  0  0  0  0  0  0
    4.9590   -8.0700   -1.6540 O   0  0  0  0  0  0  0  0  0  0  0  0
    4.7930  -10.1790   -2.1850 N   0  0  0  0  0  0  0  0  0  0  0  0
    4.7860  -11.5060   -1.8810 C   0  0  0  0  0  0  0  0  0  0  0  0
    4.5610  -12.2540   -2.8060 O   0  0  0  0  0  0  0  0  0  0  0  0
    4.8340  -14.3550    0.3030 C   0  0  0  0  0  0  0  0  0  0  0  0
    6.0290  -14.5010    0.5060 O   0  0  0  0  0  0  0  0  0  0  0  0
   -6.3060  -13.5870   -0.6100 C   0  0  0  0  0  0  0  0  0  0  0  0
   -7.7270  -13.7830   -0.0310 C   0  0  0  0  0  0  0  0  0  0  0  0
  -12.7640  -12.7630   -0.0310 C   0  0  0  0  0  0  0  0  0  0  0  0
  -12.6390  -14.0790    1.2420 S   0  0  0  0  0  0  0  0  0  0  0  0
  -11.8240  -15.4260    0.4800 C   0  0  0  0  0  0  0  0  0  0  0  0
  -10.9740  -16.2220    1.2550 C   0  0  0  0  0  0  0  0  0  0  0  0
  -10.2790  -17.2770    0.6760 C   0  0  0  0  0  0  0  0  0  0  0  0
  -10.4290  -17.5530   -0.6800 C   0  0  0  0  0  0  0  0  0  0  0  0
  -11.2890  -16.7770   -1.4540 C   0  0  0  0  0  0  0  0  0  0  0  0
  -11.9900  -15.7230   -0.8790 C   0  0  0  0  0  0  0  0  0  0  0  0
  -14.2540   -8.5170    0.3060 C   0  0  0  0  0  0  0  0  0  0  0  0
  -13.5490   -7.6920   -1.1360 S   0  0  0  0  0  0  0  0  0  0  0  0
  -14.0350   -6.3520   -1.1590 O   0  0  0  0  0  0  0  0  0  0  0  0
  -12.1260   -7.8270   -1.0950 O   0  0  0  0  0  0  0  0  0  0  0  0
  -14.2720   -8.6720   -2.5940 C   0  0  0  0  0  0  0  0  0  0  0  0
  -14.1720   -8.0460   -3.7920 F   0  0  0  0  0  0  0  0  0  0  0  0
  -15.5980   -8.9390   -2.4620 F   0  0  0  0  0  0  0  0  0  0  0  0
  -13.7050   -9.8850   -2.8020 F   0  0  0  0  0  0  0  0  0  0  0  0
  -15.2890   -7.9140    1.0290 C   0  0  0  0  0  0  0  0  0  0  0  0
  -21.3010   -8.8050    1.4670 C   0  0  0  0  0  0  0  0  0  0  0  0
  -22.4880   -9.1340    0.8290 C   0  0  0  0  0  0  0  0  0  0  0  0
  -24.0190  -11.9350   -1.0860 C   0  0  0  0  0  0  0  0  0  0  0  0
  -25.2530  -11.7310   -2.0050 C   0  0  0  0  0  0  0  0  0  0  0  0
  -28.9710  -13.3330   -0.8770 C   0  0  0  0  0  0  0  0  0  0  0  0
  -31.4390  -15.2950    0.5410 H   0  0  0  0  0  0  0  0  0  0  0  0
  -29.7260  -15.1570    1.0050 H   0  0  0  0  0  0  0  0  0  0  0  0
  -30.1640  -15.7710   -0.6070 H   0  0  0  0  0  0  0  0  0  0  0  0
  -32.4150  -13.7990   -1.1520 H   0  0  0  0  0  0  0  0  0  0  0  0
  -31.1480  -14.3250   -2.2860 H   0  0  0  0  0  0  0  0  0  0  0  0
  -31.4070  -12.5900   -1.9830 H   0  0  0  0  0  0  0  0  0  0  0  0
  -31.6940  -12.9710    1.2280 H   0  0  0  0  0  0  0  0  0  0  0  0
  -29.9570  -12.7420    1.5460 H   0  0  0  0  0  0  0  0  0  0  0  0
  -30.8600  -10.5480    1.1220 H   0  0  0  0  0  0  0  0  0  0  0  0
  -31.7490  -11.1180   -0.3110 H   0  0  0  0  0  0  0  0  0  0  0  0
  -29.0290   -8.9340    1.1480 H   0  0  0  0  0  0  0  0  0  0  0  0
  -28.6860   -6.5420    0.6610 H   0  0  0  0  0  0  0  0  0  0  0  0
  -29.6110   -7.2510   -3.4660 H   0  0  0  0  0  0  0  0  0  0  0  0
  -29.9510   -9.6430   -2.9780 H   0  0  0  0  0  0  0  0  0  0  0  0
  -27.7230  -10.4400   -2.3750 H   0  0  0  0  0  0  0  0  0  0  0  0
  -27.5780  -12.1400   -2.8820 H   0  0  0  0  0  0  0  0  0  0  0  0
  -26.5760  -12.4540   -0.5720 H   0  0  0  0  0  0  0  0  0  0  0  0
  -26.2110   -9.5260   -0.9490 H   0  0  0  0  0  0  0  0  0  0  0  0
  -27.2740  -10.2590    0.2760 H   0  0  0  0  0  0  0  0  0  0  0  0
  -25.3010  -11.4070    1.3040 H   0  0  0  0  0  0  0  0  0  0  0  0
  -25.0380   -9.6470    1.2550 H   0  0  0  0  0  0  0  0  0  0  0  0
  -21.9410  -12.4590    0.3580 H   0  0  0  0  0  0  0  0  0  0  0  0
  -19.8390  -11.8700    1.4930 H   0  0  0  0  0  0  0  0  0  0  0  0
  -19.1780   -7.4790    1.8900 H   0  0  0  0  0  0  0  0  0  0  0  0
  -15.8610  -10.3160    3.3410 H   0  0  0  0  0  0  0  0  0  0  0  0
  -14.0510  -11.4110    2.0900 H   0  0  0  0  0  0  0  0  0  0  0  0
  -12.3900   -9.9280   -0.8340 H   0  0  0  0  0  0  0  0  0  0  0  0
  -11.9700  -11.6520    1.6100 H   0  0  0  0  0  0  0  0  0  0  0  0
  -10.5420  -11.4410   -1.0750 H   0  0  0  0  0  0  0  0  0  0  0  0
  -10.1200  -10.4760    0.3610 H   0  0  0  0  0  0  0  0  0  0  0  0
  -10.1570  -13.5410    0.2090 H   0  0  0  0  0  0  0  0  0  0  0  0
   -9.7700  -12.5910    1.6640 H   0  0  0  0  0  0  0  0  0  0  0  0
   -8.0420  -10.5930    1.1080 H   0  0  0  0  0  0  0  0  0  0  0  0
   -7.5110  -12.0340    2.0080 H   0  0  0  0  0  0  0  0  0  0  0  0
   -5.5460  -10.7610    1.0580 H   0  0  0  0  0  0  0  0  0  0  0  0
   -6.2040  -11.0010   -0.5780 H   0  0  0  0  0  0  0  0  0  0  0  0
   -5.5170  -13.2200    1.2840 H   0  0  0  0  0  0  0  0  0  0  0  0
   -4.1330  -12.6090   -1.2100 H   0  0  0  0  0  0  0  0  0  0  0  0
   -3.6980  -11.7120    0.2650 H   0  0  0  0  0  0  0  0  0  0  0  0
   -3.4070  -13.8760    1.4960 H   0  0  0  0  0  0  0  0  0  0  0  0
   -3.8430  -14.7730    0.0210 H   0  0  0  0  0  0  0  0  0  0  0  0
   -1.5330  -12.7810    0.2620 H   0  0  0  0  0  0  0  0  0  0  0  0
   -1.9590  -13.7130   -1.1940 H   0  0  0  0  0  0  0  0  0  0  0  0
   -1.4610  -15.8340    0.0420 H   0  0  0  0  0  0  0  0  0  0  0  0
   -0.9840  -14.8760    1.4640 H   0  0  0  0  0  0  0  0  0  0  0  0
    0.2840  -13.8820   -0.9480 H   0  0  0  0  0  0  0  0  0  0  0  0
    0.3780  -17.1800    0.5340 H   0  0  0  0  0  0  0  0  0  0  0  0
    2.4680  -18.3540    1.1430 H   0  0  0  0  0  0  0  0  0  0  0  0
    4.6440  -17.1580    1.0800 H   0  0  0  0  0  0  0  0  0  0  0  0
    6.1680  -12.2170   -0.4070 H   0  0  0  0  0  0  0  0  0  0  0  0
    3.7060  -10.6330    0.5530 H   0  0  0  0  0  0  0  0  0  0  0  0
    5.0830  -11.1320    1.5640 H   0  0  0  0  0  0  0  0  0  0  0  0
    6.6280   -9.8050    0.0870 H   0  0  0  0  0  0  0  0  0  0  0  0
    5.3740   -8.7630    0.8000 H   0  0  0  0  0  0  0  0  0  0  0  0
    4.5710   -9.9030   -3.1310 H   0  0  0  0  0  0  0  0  0  0  0  0
   -6.3620  -13.0600   -1.5620 H   0  0  0  0  0  0  0  0  0  0  0  0
   -5.8290  -14.5560   -0.7590 H   0  0  0  0  0  0  0  0  0  0  0  0
   -7.6670  -14.2590    0.9480 H   0  0  0  0  0  0  0  0  0  0  0  0
   -8.3190  -14.4060   -0.7020 H   0  0  0  0  0  0  0  0  0  0  0  0
  -12.3100  -13.0970   -0.9640 H   0  0  0  0  0  0  0  0  0  0  0  0
  -13.8090  -12.5060   -0.2060 H   0  0  0  0  0  0  0  0  0  0  0  0
  -10.8570  -16.0160    2.3090 H   0  0  0  0  0  0  0  0  0  0  0  0
   -9.6210  -17.8840    1.2800 H   0  0  0  0  0  0  0  0  0  0  0  0
   -9.8800  -18.3670   -1.1310 H   0  0  0  0  0  0  0  0  0  0  0  0
  -11.4120  -16.9950   -2.5050 H   0  0  0  0  0  0  0  0  0  0  0  0
  -12.6640  -15.1320   -1.4810 H   0  0  0  0  0  0  0  0  0  0  0  0
  -15.6350   -6.9340    0.7360 H   0  0  0  0  0  0  0  0  0  0  0  0
  -21.1270   -7.7850    1.7760 H   0  0  0  0  0  0  0  0  0  0  0  0
  -23.2270   -8.3700    0.6390 H   0  0  0  0  0  0  0  0  0  0  0  0
  -23.1120  -12.0080   -1.6860 H   0  0  0  0  0  0  0  0  0  0  0  0
  -24.1380  -12.8430   -0.4950 H   0  0  0  0  0  0  0  0  0  0  0  0
  -25.3480  -12.5780   -2.6840 H   0  0  0  0  0  0  0  0  0  0  0  0
  -25.1330  -10.8140   -2.5820 H   0  0  0  0  0  0  0  0  0  0  0  0
  -28.7910  -13.8800   -1.8020 H   0  0  0  0  0  0  0  0  0  0  0  0
  -28.2490  -13.6470   -0.1230 H   0  0  0  0  0  0  0  0  0  0  0  0
  1  2  1  0  0  0  0
  1 90  1  0  0  0  0
  1 91  1  0  0  0  0
  1 92  1  0  0  0  0
  2  3  1  0  0  0  0
  2  4  1  0  0  0  0
  2 89  1  0  0  0  0
  3 93  1  0  0  0  0
  3 94  1  0  0  0  0
  3 95  1  0  0  0  0
  4  5  1  0  0  0  0
  4 96  1  0  0  0  0
  4 97  1  0  0  0  0
  5  6  1  0  0  0  0
  5 98  1  0  0  0  0
  5 99  1  0  0  0  0
  6  7  1  0  0  0  0
  6 14  2  0  0  0  0
  7  8  1  0  0  0  0
  7 13  2  0  0  0  0
  8  9  2  0  0  0  0
  8100  1  0  0  0  0
  9 10  1  0  0  0  0
  9101  1  0  0  0  0
 10 11  1  0  0  0  0
 10 12  2  0  0  0  0
 12 13  1  0  0  0  0
 12102  1  0  0  0  0
 13103  1  0  0  0  0
 14 15  1  0  0  0  0
 14 89  1  0  0  0  0
 15 16  1  0  0  0  0
 15104  1  0  0  0  0
 15105  1  0  0  0  0
 16 17  1  0  0  0  0
 16 88  1  0  0  0  0
 16106  1  0  0  0  0
 17 18  1  0  0  0  0
 17107  1  0  0  0  0
 17108  1  0  0  0  0
 18 19  1  0  0  0  0
 18109  1  0  0  0  0
 18110  1  0  0  0  0
 19 20  1  0  0  0  0
 19 87  1  0  0  0  0
 20 21  1  0  0  0  0
 20 86  2  0  0  0  0
 21 22  2  0  0  0  0
 21111  1  0  0  0  0
 22 23  1  0  0  0  0
 22112  1  0  0  0  0
 23 24  1  0  0  0  0
 23 85  2  0  0  0  0
 24 25  2  0  0  0  0
 24 26  1  0  0  0  0
 26 27  1  0  0  0  0
 26113  1  0  0  0  0
 27 28  2  0  0  0  0
 27 29  2  0  0  0  0
 27 30  1  0  0  0  0
 30 31  1  0  0  0  0
 30 84  2  0  0  0  0
 31 32  2  0  0  0  0
 31114  1  0  0  0  0
 32 33  1  0  0  0  0
 32115  1  0  0  0  0
 33 34  1  0  0  0  0
 33 76  2  0  0  0  0
 34 35  1  0  0  0  0
 34116  1  0  0  0  0
 35 36  1  0  0  0  0
 35 68  1  0  0  0  0
 35117  1  0  0  0  0
 36 37  1  0  0  0  0
 36118  1  0  0  0  0
 36119  1  0  0  0  0
 37 38  1  0  0  0  0
 37120  1  0  0  0  0
 37121  1  0  0  0  0
 38 39  1  0  0  0  0
 38 67  1  0  0  0  0
 39 40  1  0  0  0  0
 39122  1  0  0  0  0
 39123  1  0  0  0  0
 40 41  1  0  0  0  0
 40124  1  0  0  0  0
 40125  1  0  0  0  0
 41 42  1  0  0  0  0
 41 66  1  0  0  0  0
 41126  1  0  0  0  0
 42 43  1  0  0  0  0
 42127  1  0  0  0  0
 42128  1  0  0  0  0
 43 44  1  0  0  0  0
 43129  1  0  0  0  0
 43130  1  0  0  0  0
 44 45  1  0  0  0  0
 44131  1  0  0  0  0
 44132  1  0  0  0  0
 45 46  1  0  0  0  0
 45133  1  0  0  0  0
 45134  1  0  0  0  0
 46 47  1  0  0  0  0
 46135  1  0  0  0  0
 47 48  1  0  0  0  0
 47 52  2  0  0  0  0
 48 49  2  0  0  0  0
 48136  1  0  0  0  0
 49 50  1  0  0  0  0
 49137  1  0  0  0  0
 50 51  2  0  0  0  0
 50138  1  0  0  0  0
 51 52  1  0  0  0  0
 51 64  1  0  0  0  0
 52 53  1  0  0  0  0
 53 54  2  0  0  0  0
 53 55  1  0  0  0  0
 55 56  1  0  0  0  0
 55 64  1  0  0  0  0
 56 57  1  0  0  0  0
 56 62  1  0  0  0  0
 56139  1  0  0  0  0
 57 58  1  0  0  0  0
 57140  1  0  0  0  0
 57141  1  0  0  0  0
 58 59  1  0  0  0  0
 58142  1  0  0  0  0
 58143  1  0  0  0  0
 59 60  2  0  0  0  0
 59 61  1  0  0  0  0
 61 62  1  0  0  0  0
 61144  1  0  0  0  0
 62 63  2  0  0  0  0
 64 65  2  0  0  0  0
 66 67  1  0  0  0  0
 66145  1  0  0  0  0
 66146  1  0  0  0  0
 67147  1  0  0  0  0
 67148  1  0  0  0  0
 68 69  1  0  0  0  0
 68149  1  0  0  0  0
 68150  1  0  0  0  0
 69 70  1  0  0  0  0
 70 71  1  0  0  0  0
 70 75  2  0  0  0  0
 71 72  2  0  0  0  0
 71151  1  0  0  0  0
 72 73  1  0  0  0  0
 72152  1  0  0  0  0
 73 74  2  0  0  0  0
 73153  1  0  0  0  0
 74 75  1  0  0  0  0
 74154  1  0  0  0  0
 75155  1  0  0  0  0
 76 77  1  0  0  0  0
 76 84  1  0  0  0  0
 77 78  2  0  0  0  0
 77 79  2  0  0  0  0
 77 80  1  0  0  0  0
 80 81  1  0  0  0  0
 80 82  1  0  0  0  0
 80 83  1  0  0  0  0
 84156  1  0  0  0  0
 85 86  1  0  0  0  0
 85157  1  0  0  0  0
 86158  1  0  0  0  0
 87 88  1  0  0  0  0
 87159  1  0  0  0  0
 87160  1  0  0  0  0
 88161  1  0  0  0  0
 88162  1  0  0  0  0
 89163  1  0  0  0  0
 89164  1  0  0  0  0
M  CHG  1  16   1
M  CHG  1  41   1
M  END
>  <Compound ID>
648

>  <Uniprot>
Q07817

>  <Target>
BCL-xL

>  <E3 ligase>
CRBN

>  <IC50 (nM, Cellular activities)>
43

>  <Assay (Cellular activities, IC50)>
Inhibit viability of MOLT-4 cells

>  <Article DOI>
10.1016/j.ejmech.2020.112186

>  <Molecular Weight>
1300.99

>  <Exact Mass>
1299.4333

>  <XLogP3>
10.91

>  <Heavy Atom Count>
89

>  <Ring Count>
10

>  <Hydrogen Bond Acceptor Count>
16

>  <Hydrogen Bond Donor Count>
4

>  <Rotatable Bond Count>
23

>  <Topological Polar Surface Area>
217.95

>  <Molecular Formula>
C64H73ClF3N9O9S3

>  <InChI>
InChI=1S/C64H73ClF3N9O9S3/c1-63(2)27-25-51(43-13-17-46(65)18-14-43)45(40-63)41-75-35-37-76(38-36-75)48-19-15-44(16-20-48)59(79)72-89(85,86)50-21-22-53(56(39-50)88(83,84)64(66,67)68)70-47(42-87-49-9-4-3-5-10-49)26-30-74-33-31-73(32-34-74)29-7-6-28-69-54-12-8-11-52-58(54)62(82)77(61(52)81)55-23-24-57(78)71-60(55)80/h3-5,8-22,39,47,55,69-70H,6-7,23-38,40-42H2,1-2H3,(H,72,79)(H,71,78,80)/t47-,55?/m1/s1

>  <InChI Key>
QTSAZGUNTDTOIP-IQRNJRIOSA-N

$$$$
649
  MOE2018           3D

167176  0  0  1  0  0  0  0  0999 V2000
  -15.3300   16.6950    0.1220 C   0  0  0  0  0  0  0  0  0  0  0  0
  -13.8170   16.4120    0.0160 C   0  0  0  0  0  0  0  0  0  0  0  0
  -13.5740   15.0530    0.6960 C   0  0  0  0  0  0  0  0  0  0  0  0
  -13.3100   16.3000   -1.4360 C   0  0  0  0  0  0  0  0  0  0  0  0
  -13.6320   17.5960   -2.2090 C   0  0  0  0  0  0  0  0  0  0  0  0
  -13.2070   18.8180   -1.4010 C   0  0  0  0  0  0  0  0  0  0  0  0
  -13.1630   20.0610   -2.1630 C   0  0  0  0  0  0  0  0  0  0  0  0
  -14.1010   21.0740   -1.9210 C   0  0  0  0  0  0  0  0  0  0  0  0
  -14.0380   22.2780   -2.6120 C   0  0  0  0  0  0  0  0  0  0  0  0
  -13.0380   22.4810   -3.5650 C   0  0  0  0  0  0  0  0  0  0  0  0
  -12.9450   23.9890   -4.4140 Cl  0  0  0  0  0  0  0  0  0  0  0  0
  -12.1160   21.4700   -3.8360 C   0  0  0  0  0  0  0  0  0  0  0  0
  -12.1830   20.2670   -3.1420 C   0  0  0  0  0  0  0  0  0  0  0  0
  -12.9410   18.7740   -0.0720 C   0  0  0  0  0  0  0  0  0  0  0  0
  -12.5330   20.0200    0.6920 C   0  0  0  0  0  0  0  0  0  0  0  0
  -11.1170   19.8010    0.9920 N   0  3  0  0  0  0  0  0  0  0  0  0
  -10.3230   20.0140   -0.2650 C   0  0  0  0  0  0  0  0  0  0  0  0
   -8.8410   19.6760    0.0400 C   0  0  0  0  0  0  0  0  0  0  0  0
   -8.3880   20.5900    1.1240 N   0  0  0  0  0  0  0  0  0  0  0  0
   -7.0110   20.6790    1.3730 C   0  0  0  0  0  0  0  0  0  0  0  0
   -6.5140   21.8610    1.9320 C   0  0  0  0  0  0  0  0  0  0  0  0
   -5.1690   21.9630    2.2580 C   0  0  0  0  0  0  0  0  0  0  0  0
   -4.2880   20.8900    2.0280 C   0  0  0  0  0  0  0  0  0  0  0  0
   -2.8770   20.9610    2.4100 C   0  0  0  0  0  0  0  0  0  0  0  0
   -2.2060   19.9760    2.6670 O   0  0  0  0  0  0  0  0  0  0  0  0
   -2.2760   22.1730    2.4460 N   0  0  0  0  0  0  0  0  0  0  0  0
   -0.7400   22.3460    3.0290 S   0  0  0  0  0  0  0  0  0  0  0  0
   -0.4390   23.7270    2.9650 O   0  0  0  0  0  0  0  0  0  0  0  0
   -0.6550   21.7460    4.3090 O   0  0  0  0  0  0  0  0  0  0  0  0
    0.3550   21.4660    1.8800 C   0  0  0  0  0  0  0  0  0  0  0  0
    0.7470   20.1500    2.1360 C   0  0  0  0  0  0  0  0  0  0  0  0
    1.6290   19.4900    1.2940 C   0  0  0  0  0  0  0  0  0  0  0  0
    2.1610   20.1490    0.1790 C   0  0  0  0  0  0  0  0  0  0  0  0
    3.1040   19.5120   -0.6450 N   0  0  0  0  0  0  0  0  0  0  0  0
    3.9700   18.4590   -0.1100 C   0  0  2  0  0  0  0  0  0  0  0  0
    5.3520   18.7480   -0.7230 C   0  0  0  0  0  0  0  0  0  0  0  0
    6.3760   17.7750   -0.1130 C   0  0  0  0  0  0  0  0  0  0  0  0
    7.6890   18.1730   -0.6660 N   0  0  0  0  0  0  0  0  0  0  0  0
    8.3080   19.2560    0.1540 C   0  0  0  0  0  0  0  0  0  0  0  0
    9.6360   19.6590   -0.5350 C   0  0  0  0  0  0  0  0  0  0  0  0
   10.5300   18.4630   -0.5210 N   0  3  0  0  0  0  0  0  0  0  0  0
   11.8280   18.8550   -1.0850 C   0  0  0  0  0  0  0  0  0  0  0  0
   12.8320   17.8430   -0.5100 C   0  0  0  0  0  0  0  0  0  0  0  0
   14.2280   18.2730   -0.9880 C   0  0  0  0  0  0  0  0  0  0  0  0
   15.2850   17.3150   -0.4160 C   0  0  0  0  0  0  0  0  0  0  0  0
   16.7030   17.7250   -0.8210 C   0  0  0  0  0  0  0  0  0  0  0  0
   17.5540   16.7480   -0.1570 N   0  0  0  0  0  0  0  0  0  0  0  0
   18.9420   16.7760   -0.2640 C   0  0  0  0  0  0  0  0  0  0  0  0
   19.6510   17.9670   -0.4830 C   0  0  0  0  0  0  0  0  0  0  0  0
   21.0460   17.9460   -0.5630 C   0  0  0  0  0  0  0  0  0  0  0  0
   21.7500   16.7450   -0.4230 C   0  0  0  0  0  0  0  0  0  0  0  0
   21.0320   15.5700   -0.2060 C   0  0  0  0  0  0  0  0  0  0  0  0
   19.6530   15.5780   -0.1300 C   0  0  0  0  0  0  0  0  0  0  0  0
   19.2110   14.2270    0.0700 C   0  0  0  0  0  0  0  0  0  0  0  0
   18.0710   13.7760    0.1370 O   0  0  0  0  0  0  0  0  0  0  0  0
   20.3360   13.4150    0.1340 N   0  0  0  0  0  0  0  0  0  0  0  0
   20.3800   11.9760    0.4300 C   0  0  2  0  0  0  0  0  0  0  0  0
   19.7390   11.2240   -0.7650 C   0  0  0  0  0  0  0  0  0  0  0  0
   19.7030    9.7250   -0.3880 C   0  0  0  0  0  0  0  0  0  0  0  0
   18.8430    9.5750    0.8530 C   0  0  0  0  0  0  0  0  0  0  0  0
   18.1050    8.6420    1.0390 O   0  0  0  0  0  0  0  0  0  0  0  0
   18.9000   10.5110    1.8340 N   0  0  0  0  0  0  0  0  0  0  0  0
   19.6070   11.6690    1.7230 C   0  0  0  0  0  0  0  0  0  0  0  0
   19.6140   12.3750    2.7080 O   0  0  0  0  0  0  0  0  0  0  0  0
   21.4600   14.2010   -0.0350 C   0  0  0  0  0  0  0  0  0  0  0  0
   22.5870   13.7290   -0.0450 O   0  0  0  0  0  0  0  0  0  0  0  0
    9.9040   17.4260   -1.4030 C   0  0  0  0  0  0  0  0  0  0  0  0
    8.5780   16.9830   -0.7360 C   0  0  0  0  0  0  0  0  0  0  0  0
    3.3550   17.1130   -0.5380 C   0  0  0  0  0  0  0  0  0  0  0  0
    3.8360   15.8960    0.7460 S   0  0  0  0  0  0  0  0  0  0  0  0
    3.7750   14.3270   -0.0260 C   0  0  0  0  0  0  0  0  0  0  0  0
    4.4690   13.2660    0.5660 C   0  0  0  0  0  0  0  0  0  0  0  0
    4.4600   12.0060   -0.0210 C   0  0  0  0  0  0  0  0  0  0  0  0
    3.7550   11.7880   -1.2010 C   0  0  0  0  0  0  0  0  0  0  0  0
    3.0520   12.8360   -1.7900 C   0  0  0  0  0  0  0  0  0  0  0  0
    3.0550   14.0980   -1.2070 C   0  0  0  0  0  0  0  0  0  0  0  0
    1.7500   21.4570   -0.1250 C   0  0  0  0  0  0  0  0  0  0  0  0
    2.3460   22.3010   -1.6050 S   0  0  0  0  0  0  0  0  0  0  0  0
    2.0690   23.6920   -1.4610 O   0  0  0  0  0  0  0  0  0  0  0  0
    3.7220   21.9690   -1.8090 O   0  0  0  0  0  0  0  0  0  0  0  0
    1.2670   21.5590   -2.9800 C   0  0  0  0  0  0  0  0  0  0  0  0
    1.3390   22.2140   -4.1650 F   0  0  0  0  0  0  0  0  0  0  0  0
   -0.0590   21.5420   -2.6800 F   0  0  0  0  0  0  0  0  0  0  0  0
    1.5560   20.2730   -3.2880 F   0  0  0  0  0  0  0  0  0  0  0  0
    0.8690   22.1050    0.7470 C   0  0  0  0  0  0  0  0  0  0  0  0
   -4.7980   19.7200    1.4410 C   0  0  0  0  0  0  0  0  0  0  0  0
   -6.1420   19.6120    1.1090 C   0  0  0  0  0  0  0  0  0  0  0  0
   -9.2030   20.5390    2.3680 C   0  0  0  0  0  0  0  0  0  0  0  0
  -10.6770   20.8300    1.9830 C   0  0  0  0  0  0  0  0  0  0  0  0
  -12.9990   17.4920    0.7600 C   0  0  0  0  0  0  0  0  0  0  0  0
  -15.8830   15.9200   -0.4100 H   0  0  0  0  0  0  0  0  0  0  0  0
  -15.5500   17.6670   -0.3200 H   0  0  0  0  0  0  0  0  0  0  0  0
  -15.6270   16.6980    1.1710 H   0  0  0  0  0  0  0  0  0  0  0  0
  -14.1460   14.2810    0.1800 H   0  0  0  0  0  0  0  0  0  0  0  0
  -13.8920   15.1060    1.7370 H   0  0  0  0  0  0  0  0  0  0  0  0
  -12.5130   14.8090    0.6520 H   0  0  0  0  0  0  0  0  0  0  0  0
  -12.2320   16.1410   -1.4310 H   0  0  0  0  0  0  0  0  0  0  0  0
  -13.7990   15.4570   -1.9250 H   0  0  0  0  0  0  0  0  0  0  0  0
  -14.7050   17.6450   -2.3970 H   0  0  0  0  0  0  0  0  0  0  0  0
  -13.0970   17.5900   -3.1590 H   0  0  0  0  0  0  0  0  0  0  0  0
  -14.8810   20.9170   -1.1900 H   0  0  0  0  0  0  0  0  0  0  0  0
  -14.7610   23.0550   -2.4120 H   0  0  0  0  0  0  0  0  0  0  0  0
  -11.3510   21.6210   -4.5840 H   0  0  0  0  0  0  0  0  0  0  0  0
  -11.4720   19.4840   -3.3600 H   0  0  0  0  0  0  0  0  0  0  0  0
  -13.1130   20.1200    1.6100 H   0  0  0  0  0  0  0  0  0  0  0  0
  -12.6660   20.9120    0.0790 H   0  0  0  0  0  0  0  0  0  0  0  0
  -10.9800   18.8680    1.3530 H   0  0  0  0  0  0  0  0  0  0  0  0
  -10.6970   19.3610   -1.0530 H   0  0  0  0  0  0  0  0  0  0  0  0
  -10.4070   21.0530   -0.5840 H   0  0  0  0  0  0  0  0  0  0  0  0
   -8.2340   19.8270   -0.8520 H   0  0  0  0  0  0  0  0  0  0  0  0
   -8.7550   18.6400    0.3670 H   0  0  0  0  0  0  0  0  0  0  0  0
   -7.1770   22.6950    2.1100 H   0  0  0  0  0  0  0  0  0  0  0  0
   -4.7940   22.8770    2.6940 H   0  0  0  0  0  0  0  0  0  0  0  0
   -2.7750   22.9850    2.1110 H   0  0  0  0  0  0  0  0  0  0  0  0
    0.3570   19.6380    3.0040 H   0  0  0  0  0  0  0  0  0  0  0  0
    1.9060   18.4660    1.4980 H   0  0  0  0  0  0  0  0  0  0  0  0
    3.1850   19.7830   -1.6150 H   0  0  0  0  0  0  0  0  0  0  0  0
    4.0670   18.4250    0.9750 H   0  0  0  0  0  0  0  0  0  0  0  0
    5.3110   18.6070   -1.8030 H   0  0  0  0  0  0  0  0  0  0  0  0
    5.6440   19.7740   -0.5010 H   0  0  0  0  0  0  0  0  0  0  0  0
    6.1400   16.7490   -0.3960 H   0  0  0  0  0  0  0  0  0  0  0  0
    6.3800   17.8600    0.9740 H   0  0  0  0  0  0  0  0  0  0  0  0
    7.6380   20.1150    0.2030 H   0  0  0  0  0  0  0  0  0  0  0  0
    8.5070   18.8920    1.1620 H   0  0  0  0  0  0  0  0  0  0  0  0
   10.1040   20.4800    0.0090 H   0  0  0  0  0  0  0  0  0  0  0  0
    9.4430   19.9680   -1.5620 H   0  0  0  0  0  0  0  0  0  0  0  0
   10.6560   18.1050    0.4150 H   0  0  0  0  0  0  0  0  0  0  0  0
   11.8060   18.7970   -2.1730 H   0  0  0  0  0  0  0  0  0  0  0  0
   12.0880   19.8690   -0.7800 H   0  0  0  0  0  0  0  0  0  0  0  0
   12.7900   17.8520    0.5790 H   0  0  0  0  0  0  0  0  0  0  0  0
   12.6040   16.8410   -0.8740 H   0  0  0  0  0  0  0  0  0  0  0  0
   14.2640   18.2440   -2.0770 H   0  0  0  0  0  0  0  0  0  0  0  0
   14.4330   19.2870   -0.6440 H   0  0  0  0  0  0  0  0  0  0  0  0
   15.0880   16.3100   -0.7890 H   0  0  0  0  0  0  0  0  0  0  0  0
   15.2140   17.3200    0.6720 H   0  0  0  0  0  0  0  0  0  0  0  0
   16.9280   18.7340   -0.4750 H   0  0  0  0  0  0  0  0  0  0  0  0
   16.8270   17.6750   -1.9030 H   0  0  0  0  0  0  0  0  0  0  0  0
   17.1230   16.0250    0.4010 H   0  0  0  0  0  0  0  0  0  0  0  0
   19.1180   18.9000   -0.5900 H   0  0  0  0  0  0  0  0  0  0  0  0
   21.5860   18.8660   -0.7350 H   0  0  0  0  0  0  0  0  0  0  0  0
   22.8280   16.7290   -0.4820 H   0  0  0  0  0  0  0  0  0  0  0  0
   21.4120   11.6550    0.5730 H   0  0  0  0  0  0  0  0  0  0  0  0
   18.7270   11.5910   -0.9390 H   0  0  0  0  0  0  0  0  0  0  0  0
   20.3380   11.3700   -1.6640 H   0  0  0  0  0  0  0  0  0  0  0  0
   20.7130    9.3710   -0.1830 H   0  0  0  0  0  0  0  0  0  0  0  0
   19.2740    9.1480   -1.2070 H   0  0  0  0  0  0  0  0  0  0  0  0
   18.3920   10.3400    2.6900 H   0  0  0  0  0  0  0  0  0  0  0  0
    9.7020   17.8480   -2.3870 H   0  0  0  0  0  0  0  0  0  0  0  0
   10.5730   16.5710   -1.5040 H   0  0  0  0  0  0  0  0  0  0  0  0
    8.7750   16.6070    0.2680 H   0  0  0  0  0  0  0  0  0  0  0  0
    8.1060   16.2010   -1.3310 H   0  0  0  0  0  0  0  0  0  0  0  0
    3.7460   16.8110   -1.5100 H   0  0  0  0  0  0  0  0  0  0  0  0
    2.2690   17.1950   -0.5930 H   0  0  0  0  0  0  0  0  0  0  0  0
    5.0150   13.4270    1.4840 H   0  0  0  0  0  0  0  0  0  0  0  0
    5.0020   11.1940    0.4400 H   0  0  0  0  0  0  0  0  0  0  0  0
    3.7530   10.8100   -1.6580 H   0  0  0  0  0  0  0  0  0  0  0  0
    2.5020   12.6680   -2.7040 H   0  0  0  0  0  0  0  0  0  0  0  0
    2.5010   14.9040   -1.6650 H   0  0  0  0  0  0  0  0  0  0  0  0
    0.5780   23.1240    0.5400 H   0  0  0  0  0  0  0  0  0  0  0  0
   -4.1340   18.8910    1.2450 H   0  0  0  0  0  0  0  0  0  0  0  0
   -6.5160   18.7090    0.6490 H   0  0  0  0  0  0  0  0  0  0  0  0
   -9.1270   19.5500    2.8210 H   0  0  0  0  0  0  0  0  0  0  0  0
   -8.8490   21.2900    3.0740 H   0  0  0  0  0  0  0  0  0  0  0  0
  -10.7530   21.8230    1.5410 H   0  0  0  0  0  0  0  0  0  0  0  0
  -11.3070   20.7790    2.8710 H   0  0  0  0  0  0  0  0  0  0  0  0
  -11.9860   17.1250    0.9280 H   0  0  0  0  0  0  0  0  0  0  0  0
  -13.4720   17.7060    1.7190 H   0  0  0  0  0  0  0  0  0  0  0  0
  1  2  1  0  0  0  0
  1 91  1  0  0  0  0
  1 92  1  0  0  0  0
  1 93  1  0  0  0  0
  2  3  1  0  0  0  0
  2  4  1  0  0  0  0
  2 90  1  0  0  0  0
  3 94  1  0  0  0  0
  3 95  1  0  0  0  0
  3 96  1  0  0  0  0
  4  5  1  0  0  0  0
  4 97  1  0  0  0  0
  4 98  1  0  0  0  0
  5  6  1  0  0  0  0
  5 99  1  0  0  0  0
  5100  1  0  0  0  0
  6  7  1  0  0  0  0
  6 14  2  0  0  0  0
  7  8  1  0  0  0  0
  7 13  2  0  0  0  0
  8  9  2  0  0  0  0
  8101  1  0  0  0  0
  9 10  1  0  0  0  0
  9102  1  0  0  0  0
 10 11  1  0  0  0  0
 10 12  2  0  0  0  0
 12 13  1  0  0  0  0
 12103  1  0  0  0  0
 13104  1  0  0  0  0
 14 15  1  0  0  0  0
 14 90  1  0  0  0  0
 15 16  1  0  0  0  0
 15105  1  0  0  0  0
 15106  1  0  0  0  0
 16 17  1  0  0  0  0
 16 89  1  0  0  0  0
 16107  1  0  0  0  0
 17 18  1  0  0  0  0
 17108  1  0  0  0  0
 17109  1  0  0  0  0
 18 19  1  0  0  0  0
 18110  1  0  0  0  0
 18111  1  0  0  0  0
 19 20  1  0  0  0  0
 19 88  1  0  0  0  0
 20 21  1  0  0  0  0
 20 87  2  0  0  0  0
 21 22  2  0  0  0  0
 21112  1  0  0  0  0
 22 23  1  0  0  0  0
 22113  1  0  0  0  0
 23 24  1  0  0  0  0
 23 86  2  0  0  0  0
 24 25  2  0  0  0  0
 24 26  1  0  0  0  0
 26 27  1  0  0  0  0
 26114  1  0  0  0  0
 27 28  2  0  0  0  0
 27 29  2  0  0  0  0
 27 30  1  0  0  0  0
 30 31  1  0  0  0  0
 30 85  2  0  0  0  0
 31 32  2  0  0  0  0
 31115  1  0  0  0  0
 32 33  1  0  0  0  0
 32116  1  0  0  0  0
 33 34  1  0  0  0  0
 33 77  2  0  0  0  0
 34 35  1  0  0  0  0
 34117  1  0  0  0  0
 35 36  1  0  0  0  0
 35 69  1  0  0  0  0
 35118  1  0  0  0  0
 36 37  1  0  0  0  0
 36119  1  0  0  0  0
 36120  1  0  0  0  0
 37 38  1  0  0  0  0
 37121  1  0  0  0  0
 37122  1  0  0  0  0
 38 39  1  0  0  0  0
 38 68  1  0  0  0  0
 39 40  1  0  0  0  0
 39123  1  0  0  0  0
 39124  1  0  0  0  0
 40 41  1  0  0  0  0
 40125  1  0  0  0  0
 40126  1  0  0  0  0
 41 42  1  0  0  0  0
 41 67  1  0  0  0  0
 41127  1  0  0  0  0
 42 43  1  0  0  0  0
 42128  1  0  0  0  0
 42129  1  0  0  0  0
 43 44  1  0  0  0  0
 43130  1  0  0  0  0
 43131  1  0  0  0  0
 44 45  1  0  0  0  0
 44132  1  0  0  0  0
 44133  1  0  0  0  0
 45 46  1  0  0  0  0
 45134  1  0  0  0  0
 45135  1  0  0  0  0
 46 47  1  0  0  0  0
 46136  1  0  0  0  0
 46137  1  0  0  0  0
 47 48  1  0  0  0  0
 47138  1  0  0  0  0
 48 49  1  0  0  0  0
 48 53  2  0  0  0  0
 49 50  2  0  0  0  0
 49139  1  0  0  0  0
 50 51  1  0  0  0  0
 50140  1  0  0  0  0
 51 52  2  0  0  0  0
 51141  1  0  0  0  0
 52 53  1  0  0  0  0
 52 65  1  0  0  0  0
 53 54  1  0  0  0  0
 54 55  2  0  0  0  0
 54 56  1  0  0  0  0
 56 57  1  0  0  0  0
 56 65  1  0  0  0  0
 57 58  1  0  0  0  0
 57 63  1  0  0  0  0
 57142  1  0  0  0  0
 58 59  1  0  0  0  0
 58143  1  0  0  0  0
 58144  1  0  0  0  0
 59 60  1  0  0  0  0
 59145  1  0  0  0  0
 59146  1  0  0  0  0
 60 61  2  0  0  0  0
 60 62  1  0  0  0  0
 62 63  1  0  0  0  0
 62147  1  0  0  0  0
 63 64  2  0  0  0  0
 65 66  2  0  0  0  0
 67 68  1  0  0  0  0
 67148  1  0  0  0  0
 67149  1  0  0  0  0
 68150  1  0  0  0  0
 68151  1  0  0  0  0
 69 70  1  0  0  0  0
 69152  1  0  0  0  0
 69153  1  0  0  0  0
 70 71  1  0  0  0  0
 71 72  1  0  0  0  0
 71 76  2  0  0  0  0
 72 73  2  0  0  0  0
 72154  1  0  0  0  0
 73 74  1  0  0  0  0
 73155  1  0  0  0  0
 74 75  2  0  0  0  0
 74156  1  0  0  0  0
 75 76  1  0  0  0  0
 75157  1  0  0  0  0
 76158  1  0  0  0  0
 77 78  1  0  0  0  0
 77 85  1  0  0  0  0
 78 79  2  0  0  0  0
 78 80  2  0  0  0  0
 78 81  1  0  0  0  0
 81 82  1  0  0  0  0
 81 83  1  0  0  0  0
 81 84  1  0  0  0  0
 85159  1  0  0  0  0
 86 87  1  0  0  0  0
 86160  1  0  0  0  0
 87161  1  0  0  0  0
 88 89  1  0  0  0  0
 88162  1  0  0  0  0
 88163  1  0  0  0  0
 89164  1  0  0  0  0
 89165  1  0  0  0  0
 90166  1  0  0  0  0
 90167  1  0  0  0  0
M  CHG  1  16   1
M  CHG  1  41   1
M  END
>  <Compound ID>
649

>  <Uniprot>
Q07817

>  <Target>
BCL-xL

>  <E3 ligase>
CRBN

>  <IC50 (nM, Cellular activities)>
100

>  <Assay (Cellular activities, IC50)>
Inhibit viability of MOLT-4 cells

>  <Article DOI>
10.1016/j.ejmech.2020.112186

>  <Molecular Weight>
1315.017

>  <Exact Mass>
1313.4491

>  <XLogP3>
11.27

>  <Heavy Atom Count>
90

>  <Ring Count>
10

>  <Hydrogen Bond Acceptor Count>
16

>  <Hydrogen Bond Donor Count>
4

>  <Rotatable Bond Count>
24

>  <Topological Polar Surface Area>
217.95

>  <Molecular Formula>
C65H75ClF3N9O9S3

>  <InChI>
InChI=1S/C65H75ClF3N9O9S3/c1-64(2)28-26-52(44-14-18-47(66)19-15-44)46(41-64)42-76-36-38-77(39-37-76)49-20-16-45(17-21-49)60(80)73-90(86,87)51-22-23-54(57(40-51)89(84,85)65(67,68)69)71-48(43-88-50-10-5-3-6-11-50)27-31-75-34-32-74(33-35-75)30-8-4-7-29-70-55-13-9-12-53-59(55)63(83)78(62(53)82)56-24-25-58(79)72-61(56)81/h3,5-6,9-23,40,48,56,70-71H,4,7-8,24-39,41-43H2,1-2H3,(H,73,80)(H,72,79,81)/t48-,56?/m1/s1

>  <InChI Key>
YBFNQIRBVZVRKS-YJUSKGKKSA-N

$$$$
650
  MOE2018           3D

171180  0  0  1  0  0  0  0  0999 V2000
  -35.1050    9.4030    0.0540 C   0  0  0  0  0  0  0  0  0  0  0  0
  -34.6530   10.8580    0.2750 C   0  0  0  0  0  0  0  0  0  0  0  0
  -35.7650   11.5480    1.0930 C   0  0  0  0  0  0  0  0  0  0  0  0
  -34.4260   11.4870   -1.1140 C   0  0  0  0  0  0  0  0  0  0  0  0
  -34.0810   12.9830   -0.9650 C   0  0  0  0  0  0  0  0  0  0  0  0
  -33.0110   13.1870    0.1040 C   0  0  0  0  0  0  0  0  0  0  0  0
  -32.4120   14.5170    0.1020 C   0  0  0  0  0  0  0  0  0  0  0  0
  -32.6270   15.3960    1.1730 C   0  0  0  0  0  0  0  0  0  0  0  0
  -32.0320   16.6510    1.1910 C   0  0  0  0  0  0  0  0  0  0  0  0
  -31.2210   17.0510    0.1280 C   0  0  0  0  0  0  0  0  0  0  0  0
  -30.4650   18.6100    0.1550 Cl  0  0  0  0  0  0  0  0  0  0  0  0
  -31.0190   16.1970   -0.9570 C   0  0  0  0  0  0  0  0  0  0  0  0
  -31.6150   14.9420   -0.9700 C   0  0  0  0  0  0  0  0  0  0  0  0
  -32.6840   12.2380    1.0170 C   0  0  0  0  0  0  0  0  0  0  0  0
  -31.6360   12.4770    2.0850 C   0  0  0  0  0  0  0  0  0  0  0  0
  -30.4800   11.7230    1.6020 N   0  3  0  0  0  0  0  0  0  0  0  0
  -29.5640   11.4700    2.7610 C   0  0  0  0  0  0  0  0  0  0  0  0
  -28.3500   10.6410    2.2660 C   0  0  0  0  0  0  0  0  0  0  0  0
  -27.6800   11.4500    1.2190 N   0  0  0  0  0  0  0  0  0  0  0  0
  -26.3260   11.1570    0.9980 C   0  0  0  0  0  0  0  0  0  0  0  0
  -25.8640   10.7140   -0.2480 C   0  0  0  0  0  0  0  0  0  0  0  0
  -24.5160   10.4360   -0.4260 C   0  0  0  0  0  0  0  0  0  0  0  0
  -23.5980   10.5930    0.6300 C   0  0  0  0  0  0  0  0  0  0  0  0
  -22.1720   10.2950    0.4620 C   0  0  0  0  0  0  0  0  0  0  0  0
  -21.3240   10.3780    1.3350 O   0  0  0  0  0  0  0  0  0  0  0  0
  -21.6650    9.9020   -0.7120 N   0  0  0  0  0  0  0  0  0  0  0  0
  -21.1490   11.1810   -1.6100 S   0  0  0  0  0  0  0  0  0  0  0  0
  -21.2300   10.8050   -2.9700 O   0  0  0  0  0  0  0  0  0  0  0  0
  -21.8890   12.3310   -1.2400 O   0  0  0  0  0  0  0  0  0  0  0  0
  -19.4130   11.4190   -1.1530 C   0  0  0  0  0  0  0  0  0  0  0  0
  -19.0670   12.1920   -0.0420 C   0  0  0  0  0  0  0  0  0  0  0  0
  -17.7370   12.3980    0.2940 C   0  0  0  0  0  0  0  0  0  0  0  0
  -16.7220   11.8510   -0.4940 C   0  0  0  0  0  0  0  0  0  0  0  0
  -15.4010   12.1580   -0.1420 N   0  0  0  0  0  0  0  0  0  0  0  0
  -14.8050   13.3190   -0.8590 C   0  0  2  0  0  0  0  0  0  0  0  0
  -13.3110   13.3450   -0.4740 C   0  0  0  0  0  0  0  0  0  0  0  0
  -12.6430   12.2060   -1.2510 C   0  0  0  0  0  0  0  0  0  0  0  0
  -11.2060   12.2790   -0.9230 N   0  3  0  0  0  0  0  0  0  0  0  0
  -10.6250   10.9280   -1.1670 C   0  0  0  0  0  0  0  0  0  0  0  0
   -9.1440   10.9430   -0.7090 C   0  0  0  0  0  0  0  0  0  0  0  0
   -8.4310   12.0250   -1.4500 N   0  0  0  0  0  0  0  0  0  0  0  0
   -7.1200   11.9220   -1.7920 C   0  0  0  0  0  0  0  0  0  0  0  0
   -6.5400   12.8980   -2.2590 O   0  0  0  0  0  0  0  0  0  0  0  0
   -6.3540   10.6070   -1.6420 C   0  0  0  0  0  0  0  0  0  0  0  0
   -6.3350   10.2360   -0.2040 O   0  0  0  0  0  0  0  0  0  0  0  0
   -5.6260    9.0130    0.1580 C   0  0  0  0  0  0  0  0  0  0  0  0
   -4.1410    9.3660    0.2520 C   0  0  0  0  0  0  0  0  0  0  0  0
   -3.4270    8.1850    0.5860 O   0  0  0  0  0  0  0  0  0  0  0  0
   -2.0180    8.3710    0.5730 C   0  0  0  0  0  0  0  0  0  0  0  0
   -1.3420    7.0570    0.9680 C   0  0  0  0  0  0  0  0  0  0  0  0
    0.1040    7.2680    0.8040 N   0  0  0  0  0  0  0  0  0  0  0  0
    1.0350    6.2660    1.0640 C   0  0  0  0  0  0  0  0  0  0  0  0
    0.6940    4.9030    1.0420 C   0  0  0  0  0  0  0  0  0  0  0  0
    1.6690    3.9340    1.2940 C   0  0  0  0  0  0  0  0  0  0  0  0
    2.9890    4.3040    1.5670 C   0  0  0  0  0  0  0  0  0  0  0  0
    3.3130    5.6600    1.5840 C   0  0  0  0  0  0  0  0  0  0  0  0
    2.3580    6.6280    1.3420 C   0  0  0  0  0  0  0  0  0  0  0  0
    2.9900    7.9130    1.4490 C   0  0  0  0  0  0  0  0  0  0  0  0
    2.5040    9.0360    1.3580 O   0  0  0  0  0  0  0  0  0  0  0  0
    4.3330    7.7050    1.7360 N   0  0  0  0  0  0  0  0  0  0  0  0
    5.4000    8.7150    1.7920 C   0  0  2  0  0  0  0  0  0  0  0  0
    5.1390    9.6270    3.0180 C   0  0  0  0  0  0  0  0  0  0  0  0
    6.2220   10.7320    2.9960 C   0  0  0  0  0  0  0  0  0  0  0  0
    6.0660   11.5170    1.7060 C   0  0  0  0  0  0  0  0  0  0  0  0
    6.2390   12.7060    1.6290 O   0  0  0  0  0  0  0  0  0  0  0  0
    5.7340   10.8750    0.5570 N   0  0  0  0  0  0  0  0  0  0  0  0
    5.4090    9.5540    0.5040 C   0  0  0  0  0  0  0  0  0  0  0  0
    5.1880    9.1130   -0.6020 O   0  0  0  0  0  0  0  0  0  0  0  0
    4.5600    6.3450    1.8310 C   0  0  0  0  0  0  0  0  0  0  0  0
    5.6610    5.8880    2.0970 O   0  0  0  0  0  0  0  0  0  0  0  0
   -9.0640   13.3780   -1.4460 C   0  0  0  0  0  0  0  0  0  0  0  0
  -10.5420   13.2250   -1.8770 C   0  0  0  0  0  0  0  0  0  0  0  0
  -15.5140   14.6170   -0.4160 C   0  0  0  0  0  0  0  0  0  0  0  0
  -14.8260   15.9590   -1.4540 S   0  0  0  0  0  0  0  0  0  0  0  0
  -15.4310   17.4640   -0.7930 C   0  0  0  0  0  0  0  0  0  0  0  0
  -16.4520   17.5120    0.1680 C   0  0  0  0  0  0  0  0  0  0  0  0
  -16.8840   18.7350    0.6680 C   0  0  0  0  0  0  0  0  0  0  0  0
  -16.3130   19.9210    0.2160 C   0  0  0  0  0  0  0  0  0  0  0  0
  -15.3070   19.8810   -0.7450 C   0  0  0  0  0  0  0  0  0  0  0  0
  -14.8690   18.6620   -1.2480 C   0  0  0  0  0  0  0  0  0  0  0  0
  -17.0380   11.0190   -1.5800 C   0  0  0  0  0  0  0  0  0  0  0  0
  -15.7750   10.1020   -2.4890 S   0  0  0  0  0  0  0  0  0  0  0  0
  -16.4120    9.4240   -3.5660 O   0  0  0  0  0  0  0  0  0  0  0  0
  -14.7140   10.9830   -2.8710 O   0  0  0  0  0  0  0  0  0  0  0  0
  -15.1540    8.8460   -1.2080 C   0  0  0  0  0  0  0  0  0  0  0  0
  -16.1210    8.3750   -0.3840 F   0  0  0  0  0  0  0  0  0  0  0  0
  -14.1930    9.3320   -0.3690 F   0  0  0  0  0  0  0  0  0  0  0  0
  -14.5860    7.7420   -1.7420 F   0  0  0  0  0  0  0  0  0  0  0  0
  -18.3870   10.8430   -1.9110 C   0  0  0  0  0  0  0  0  0  0  0  0
  -24.0790   11.0430    1.8700 C   0  0  0  0  0  0  0  0  0  0  0  0
  -25.4250   11.3240    2.0550 C   0  0  0  0  0  0  0  0  0  0  0  0
  -28.5360   11.7950    0.0560 C   0  0  0  0  0  0  0  0  0  0  0  0
  -29.7520   12.5830    0.6080 C   0  0  0  0  0  0  0  0  0  0  0  0
  -33.3180   10.8470    1.0520 C   0  0  0  0  0  0  0  0  0  0  0  0
  -36.0470    9.3950   -0.4940 H   0  0  0  0  0  0  0  0  0  0  0  0
  -35.2410    8.9140    1.0190 H   0  0  0  0  0  0  0  0  0  0  0  0
  -34.3460    8.8700   -0.5190 H   0  0  0  0  0  0  0  0  0  0  0  0
  -36.6930   11.5410    0.5220 H   0  0  0  0  0  0  0  0  0  0  0  0
  -35.4750   12.5770    1.3040 H   0  0  0  0  0  0  0  0  0  0  0  0
  -35.9120   11.0120    2.0310 H   0  0  0  0  0  0  0  0  0  0  0  0
  -33.6030   10.9750   -1.6120 H   0  0  0  0  0  0  0  0  0  0  0  0
  -35.3330   11.3830   -1.7100 H   0  0  0  0  0  0  0  0  0  0  0  0
  -34.9800   13.5310   -0.6810 H   0  0  0  0  0  0  0  0  0  0  0  0
  -33.7110   13.3610   -1.9180 H   0  0  0  0  0  0  0  0  0  0  0  0
  -33.2620   15.0940    1.9930 H   0  0  0  0  0  0  0  0  0  0  0  0
  -32.1970   17.3160    2.0260 H   0  0  0  0  0  0  0  0  0  0  0  0
  -30.4010   16.5110   -1.7850 H   0  0  0  0  0  0  0  0  0  0  0  0
  -31.4630   14.2870   -1.8150 H   0  0  0  0  0  0  0  0  0  0  0  0
  -31.9710   12.1000    3.0510 H   0  0  0  0  0  0  0  0  0  0  0  0
  -31.4010   13.5380    2.1700 H   0  0  0  0  0  0  0  0  0  0  0  0
  -30.7690   10.8510    1.1830 H   0  0  0  0  0  0  0  0  0  0  0  0
  -29.2180   12.4200    3.1680 H   0  0  0  0  0  0  0  0  0  0  0  0
  -30.0960   10.9150    3.5340 H   0  0  0  0  0  0  0  0  0  0  0  0
  -28.6880    9.6920    1.8490 H   0  0  0  0  0  0  0  0  0  0  0  0
  -27.6630   10.4510    3.0910 H   0  0  0  0  0  0  0  0  0  0  0  0
  -26.5550   10.5890   -1.0680 H   0  0  0  0  0  0  0  0  0  0  0  0
  -24.1660   10.0940   -1.3890 H   0  0  0  0  0  0  0  0  0  0  0  0
  -21.6060    8.9390   -1.0100 H   0  0  0  0  0  0  0  0  0  0  0  0
  -19.8450   12.6350    0.5630 H   0  0  0  0  0  0  0  0  0  0  0  0
  -17.4860   12.9830    1.1670 H   0  0  0  0  0  0  0  0  0  0  0  0
  -14.8890   11.6290    0.5490 H   0  0  0  0  0  0  0  0  0  0  0  0
  -14.9200   13.2360   -1.9400 H   0  0  0  0  0  0  0  0  0  0  0  0
  -12.8670   14.3010   -0.7510 H   0  0  0  0  0  0  0  0  0  0  0  0
  -13.1950   13.1880    0.5980 H   0  0  0  0  0  0  0  0  0  0  0  0
  -12.7940   12.3380   -2.3220 H   0  0  0  0  0  0  0  0  0  0  0  0
  -13.0540   11.2450   -0.9420 H   0  0  0  0  0  0  0  0  0  0  0  0
  -11.0740   12.5820    0.0310 H   0  0  0  0  0  0  0  0  0  0  0  0
  -11.1790   10.1810   -0.5980 H   0  0  0  0  0  0  0  0  0  0  0  0
  -10.6800   10.6900   -2.2290 H   0  0  0  0  0  0  0  0  0  0  0  0
   -8.6810    9.9810   -0.9280 H   0  0  0  0  0  0  0  0  0  0  0  0
   -9.0920   11.1350    0.3630 H   0  0  0  0  0  0  0  0  0  0  0  0
   -5.3330   10.7320   -2.0030 H   0  0  0  0  0  0  0  0  0  0  0  0
   -6.8490    9.8250   -2.2170 H   0  0  0  0  0  0  0  0  0  0  0  0
   -5.9840    8.6440    1.1190 H   0  0  0  0  0  0  0  0  0  0  0  0
   -5.7820    8.2510   -0.6050 H   0  0  0  0  0  0  0  0  0  0  0  0
   -3.9890   10.1200    1.0240 H   0  0  0  0  0  0  0  0  0  0  0  0
   -3.7910    9.7510   -0.7060 H   0  0  0  0  0  0  0  0  0  0  0  0
   -1.6960    8.6620   -0.4270 H   0  0  0  0  0  0  0  0  0  0  0  0
   -1.7450    9.1510    1.2840 H   0  0  0  0  0  0  0  0  0  0  0  0
   -1.6810    6.2490    0.3200 H   0  0  0  0  0  0  0  0  0  0  0  0
   -1.5720    6.8120    2.0050 H   0  0  0  0  0  0  0  0  0  0  0  0
    0.4330    8.1710    0.4920 H   0  0  0  0  0  0  0  0  0  0  0  0
   -0.3220    4.6040    0.8300 H   0  0  0  0  0  0  0  0  0  0  0  0
    1.4000    2.8880    1.2780 H   0  0  0  0  0  0  0  0  0  0  0  0
    3.7420    3.5550    1.7610 H   0  0  0  0  0  0  0  0  0  0  0  0
    6.3700    8.2270    1.8850 H   0  0  0  0  0  0  0  0  0  0  0  0
    4.1470   10.0730    2.9490 H   0  0  0  0  0  0  0  0  0  0  0  0
    5.2130    9.0480    3.9380 H   0  0  0  0  0  0  0  0  0  0  0  0
    7.2130   10.2800    3.0360 H   0  0  0  0  0  0  0  0  0  0  0  0
    6.0910   11.3950    3.8510 H   0  0  0  0  0  0  0  0  0  0  0  0
    5.7280   11.4050   -0.3030 H   0  0  0  0  0  0  0  0  0  0  0  0
   -9.0150   13.8050   -0.4440 H   0  0  0  0  0  0  0  0  0  0  0  0
   -8.5420   14.0310   -2.1450 H   0  0  0  0  0  0  0  0  0  0  0  0
  -10.5930   12.8250   -2.8900 H   0  0  0  0  0  0  0  0  0  0  0  0
  -11.0400   14.1940   -1.8430 H   0  0  0  0  0  0  0  0  0  0  0  0
  -15.3150   14.8150    0.6370 H   0  0  0  0  0  0  0  0  0  0  0  0
  -16.5890   14.5320   -0.5730 H   0  0  0  0  0  0  0  0  0  0  0  0
  -16.9040   16.5960    0.5200 H   0  0  0  0  0  0  0  0  0  0  0  0
  -17.6670   18.7650    1.4110 H   0  0  0  0  0  0  0  0  0  0  0  0
  -16.6490   20.8690    0.6090 H   0  0  0  0  0  0  0  0  0  0  0  0
  -14.8650   20.8000   -1.1010 H   0  0  0  0  0  0  0  0  0  0  0  0
  -14.0900   18.6390   -1.9950 H   0  0  0  0  0  0  0  0  0  0  0  0
  -18.6430   10.2470   -2.7740 H   0  0  0  0  0  0  0  0  0  0  0  0
  -23.3910   11.1720    2.6920 H   0  0  0  0  0  0  0  0  0  0  0  0
  -25.7770   11.6720    3.0150 H   0  0  0  0  0  0  0  0  0  0  0  0
  -27.9790   12.4120   -0.6490 H   0  0  0  0  0  0  0  0  0  0  0  0
  -28.8740   10.8870   -0.4430 H   0  0  0  0  0  0  0  0  0  0  0  0
  -30.4220   12.8420   -0.2110 H   0  0  0  0  0  0  0  0  0  0  0  0
  -29.4060   13.4940    1.0970 H   0  0  0  0  0  0  0  0  0  0  0  0
  -32.6390   10.1290    0.5930 H   0  0  0  0  0  0  0  0  0  0  0  0
  -33.5050   10.5610    2.0870 H   0  0  0  0  0  0  0  0  0  0  0  0
  1  2  1  0  0  0  0
  1 95  1  0  0  0  0
  1 96  1  0  0  0  0
  1 97  1  0  0  0  0
  2  3  1  0  0  0  0
  2  4  1  0  0  0  0
  2 94  1  0  0  0  0
  3 98  1  0  0  0  0
  3 99  1  0  0  0  0
  3100  1  0  0  0  0
  4  5  1  0  0  0  0
  4101  1  0  0  0  0
  4102  1  0  0  0  0
  5  6  1  0  0  0  0
  5103  1  0  0  0  0
  5104  1  0  0  0  0
  6  7  1  0  0  0  0
  6 14  2  0  0  0  0
  7  8  1  0  0  0  0
  7 13  2  0  0  0  0
  8  9  2  0  0  0  0
  8105  1  0  0  0  0
  9 10  1  0  0  0  0
  9106  1  0  0  0  0
 10 11  1  0  0  0  0
 10 12  2  0  0  0  0
 12 13  1  0  0  0  0
 12107  1  0  0  0  0
 13108  1  0  0  0  0
 14 15  1  0  0  0  0
 14 94  1  0  0  0  0
 15 16  1  0  0  0  0
 15109  1  0  0  0  0
 15110  1  0  0  0  0
 16 17  1  0  0  0  0
 16 93  1  0  0  0  0
 16111  1  0  0  0  0
 17 18  1  0  0  0  0
 17112  1  0  0  0  0
 17113  1  0  0  0  0
 18 19  1  0  0  0  0
 18114  1  0  0  0  0
 18115  1  0  0  0  0
 19 20  1  0  0  0  0
 19 92  1  0  0  0  0
 20 21  1  0  0  0  0
 20 91  2  0  0  0  0
 21 22  2  0  0  0  0
 21116  1  0  0  0  0
 22 23  1  0  0  0  0
 22117  1  0  0  0  0
 23 24  1  0  0  0  0
 23 90  2  0  0  0  0
 24 25  2  0  0  0  0
 24 26  1  0  0  0  0
 26 27  1  0  0  0  0
 26118  1  0  0  0  0
 27 28  2  0  0  0  0
 27 29  2  0  0  0  0
 27 30  1  0  0  0  0
 30 31  1  0  0  0  0
 30 89  2  0  0  0  0
 31 32  2  0  0  0  0
 31119  1  0  0  0  0
 32 33  1  0  0  0  0
 32120  1  0  0  0  0
 33 34  1  0  0  0  0
 33 81  2  0  0  0  0
 34 35  1  0  0  0  0
 34121  1  0  0  0  0
 35 36  1  0  0  0  0
 35 73  1  0  0  0  0
 35122  1  0  0  0  0
 36 37  1  0  0  0  0
 36123  1  0  0  0  0
 36124  1  0  0  0  0
 37 38  1  0  0  0  0
 37125  1  0  0  0  0
 37126  1  0  0  0  0
 38 39  1  0  0  0  0
 38 72  1  0  0  0  0
 38127  1  0  0  0  0
 39 40  1  0  0  0  0
 39128  1  0  0  0  0
 39129  1  0  0  0  0
 40 41  1  0  0  0  0
 40130  1  0  0  0  0
 40131  1  0  0  0  0
 41 42  1  0  0  0  0
 41 71  1  0  0  0  0
 42 43  2  0  0  0  0
 42 44  1  0  0  0  0
 44 45  1  0  0  0  0
 44132  1  0  0  0  0
 44133  1  0  0  0  0
 45 46  1  0  0  0  0
 46 47  1  0  0  0  0
 46134  1  0  0  0  0
 46135  1  0  0  0  0
 47 48  1  0  0  0  0
 47136  1  0  0  0  0
 47137  1  0  0  0  0
 48 49  1  0  0  0  0
 49 50  1  0  0  0  0
 49138  1  0  0  0  0
 49139  1  0  0  0  0
 50 51  1  0  0  0  0
 50140  1  0  0  0  0
 50141  1  0  0  0  0
 51 52  1  0  0  0  0
 51142  1  0  0  0  0
 52 53  1  0  0  0  0
 52 57  2  0  0  0  0
 53 54  2  0  0  0  0
 53143  1  0  0  0  0
 54 55  1  0  0  0  0
 54144  1  0  0  0  0
 55 56  2  0  0  0  0
 55145  1  0  0  0  0
 56 57  1  0  0  0  0
 56 69  1  0  0  0  0
 57 58  1  0  0  0  0
 58 59  2  0  0  0  0
 58 60  1  0  0  0  0
 60 61  1  0  0  0  0
 60 69  1  0  0  0  0
 61 62  1  0  0  0  0
 61 67  1  0  0  0  0
 61146  1  0  0  0  0
 62 63  1  0  0  0  0
 62147  1  0  0  0  0
 62148  1  0  0  0  0
 63 64  1  0  0  0  0
 63149  1  0  0  0  0
 63150  1  0  0  0  0
 64 65  2  0  0  0  0
 64 66  1  0  0  0  0
 66 67  1  0  0  0  0
 66151  1  0  0  0  0
 67 68  2  0  0  0  0
 69 70  2  0  0  0  0
 71 72  1  0  0  0  0
 71152  1  0  0  0  0
 71153  1  0  0  0  0
 72154  1  0  0  0  0
 72155  1  0  0  0  0
 73 74  1  0  0  0  0
 73156  1  0  0  0  0
 73157  1  0  0  0  0
 74 75  1  0  0  0  0
 75 76  1  0  0  0  0
 75 80  2  0  0  0  0
 76 77  2  0  0  0  0
 76158  1  0  0  0  0
 77 78  1  0  0  0  0
 77159  1  0  0  0  0
 78 79  2  0  0  0  0
 78160  1  0  0  0  0
 79 80  1  0  0  0  0
 79161  1  0  0  0  0
 80162  1  0  0  0  0
 81 82  1  0  0  0  0
 81 89  1  0  0  0  0
 82 83  2  0  0  0  0
 82 84  2  0  0  0  0
 82 85  1  0  0  0  0
 85 86  1  0  0  0  0
 85 87  1  0  0  0  0
 85 88  1  0  0  0  0
 89163  1  0  0  0  0
 90 91  1  0  0  0  0
 90164  1  0  0  0  0
 91165  1  0  0  0  0
 92 93  1  0  0  0  0
 92166  1  0  0  0  0
 92167  1  0  0  0  0
 93168  1  0  0  0  0
 93169  1  0  0  0  0
 94170  1  0  0  0  0
 94171  1  0  0  0  0
M  CHG  1  16   1
M  CHG  1  38   1
M  END
>  <Compound ID>
650

>  <Uniprot>
Q07817

>  <Target>
BCL-xL

>  <E3 ligase>
CRBN

>  <IC50 (nM, Cellular activities)>
161

>  <Assay (Cellular activities, IC50)>
Inhibit viability of MOLT-4 cells

>  <Article DOI>
10.1016/j.ejmech.2020.112186

>  <Molecular Weight>
1375.025

>  <Exact Mass>
1373.4338

>  <XLogP3>
9.3900003

>  <Heavy Atom Count>
94

>  <Ring Count>
10

>  <Hydrogen Bond Acceptor Count>
18

>  <Hydrogen Bond Donor Count>
4

>  <Rotatable Bond Count>
26

>  <Topological Polar Surface Area>
253.48

>  <Molecular Formula>
C66H75ClF3N9O12S3

>  <InChI>
InChI=1S/C66H75ClF3N9O12S3/c1-65(2)25-23-52(44-11-15-47(67)16-12-44)46(40-65)41-76-30-32-77(33-31-76)49-17-13-45(14-18-49)61(82)74-94(88,89)51-19-20-54(57(39-51)93(86,87)66(68,69)70)72-48(43-92-50-7-4-3-5-8-50)24-27-75-28-34-78(35-29-75)59(81)42-91-38-37-90-36-26-71-55-10-6-9-53-60(55)64(85)79(63(53)84)56-21-22-58(80)73-62(56)83/h3-20,39,48,56,71-72H,21-38,40-43H2,1-2H3,(H,74,82)(H,73,80,83)/t48-,56?/m1/s1

>  <InChI Key>
VJVKHPKQMHHKQT-YJUSKGKKSA-N

$$$$
651
  MOE2018           3D

178187  0  0  1  0  0  0  0  0999 V2000
  -12.4300  -15.2920    4.1870 C   0  0  0  0  0  0  0  0  0  0  0  0
  -12.2150  -16.8100    4.0560 C   0  0  0  0  0  0  0  0  0  0  0  0
  -12.2040  -17.3930    5.4810 C   0  0  0  0  0  0  0  0  0  0  0  0
  -13.4250  -17.4350    3.2920 C   0  0  0  0  0  0  0  0  0  0  0  0
  -13.0630  -17.7310    1.8230 C   0  0  0  0  0  0  0  0  0  0  0  0
  -11.9180  -18.7230    1.9140 C   0  0  0  0  0  0  0  0  0  0  0  0
  -12.0480  -19.9710    1.1730 C   0  0  0  0  0  0  0  0  0  0  0  0
  -12.1840  -19.9550   -0.2220 C   0  0  0  0  0  0  0  0  0  0  0  0
  -12.2690  -21.1410   -0.9400 C   0  0  0  0  0  0  0  0  0  0  0  0
  -12.2310  -22.3640   -0.2690 C   0  0  0  0  0  0  0  0  0  0  0  0
  -12.3190  -23.8450   -1.1640 Cl  0  0  0  0  0  0  0  0  0  0  0  0
  -12.1250  -22.3950    1.1220 C   0  0  0  0  0  0  0  0  0  0  0  0
  -12.0410  -21.2060    1.8360 C   0  0  0  0  0  0  0  0  0  0  0  0
  -10.8530  -18.4050    2.6820 C   0  0  0  0  0  0  0  0  0  0  0  0
   -9.6490  -19.3090    2.8470 C   0  0  0  0  0  0  0  0  0  0  0  0
   -8.6390  -18.6830    1.9950 N   0  3  0  0  0  0  0  0  0  0  0  0
   -7.3000  -19.2410    2.3690 C   0  0  0  0  0  0  0  0  0  0  0  0
   -6.2140  -18.5570    1.4960 C   0  0  0  0  0  0  0  0  0  0  0  0
   -6.5420  -18.8560    0.0790 N   0  0  0  0  0  0  0  0  0  0  0  0
   -5.5300  -18.7700   -0.8910 C   0  0  0  0  0  0  0  0  0  0  0  0
   -5.6970  -19.4570   -2.0990 C   0  0  0  0  0  0  0  0  0  0  0  0
   -4.7180  -19.3860   -3.0790 C   0  0  0  0  0  0  0  0  0  0  0  0
   -3.5440  -18.6430   -2.8750 C   0  0  0  0  0  0  0  0  0  0  0  0
   -2.5190  -18.5980   -3.9150 C   0  0  0  0  0  0  0  0  0  0  0  0
   -2.7770  -18.6000   -5.1050 O   0  0  0  0  0  0  0  0  0  0  0  0
   -1.2230  -18.5890   -3.5300 N   0  0  0  0  0  0  0  0  0  0  0  0
   -0.0520  -18.0320   -4.5480 S   0  0  0  0  0  0  0  0  0  0  0  0
   -0.3430  -16.6820   -4.8610 O   0  0  0  0  0  0  0  0  0  0  0  0
    0.0920  -18.9260   -5.6350 O   0  0  0  0  0  0  0  0  0  0  0  0
    1.4550  -18.0950   -3.5520 C   0  0  0  0  0  0  0  0  0  0  0  0
    1.8670  -16.9910   -2.8010 C   0  0  0  0  0  0  0  0  0  0  0  0
    3.0330  -17.0400   -2.0510 C   0  0  0  0  0  0  0  0  0  0  0  0
    3.8260  -18.1910   -2.0630 C   0  0  0  0  0  0  0  0  0  0  0  0
    5.0310  -18.1550   -1.3500 N   0  0  0  0  0  0  0  0  0  0  0  0
    6.2250  -17.7740   -2.1500 C   0  0  2  0  0  0  0  0  0  0  0  0
    7.4520  -18.0170   -1.2450 C   0  0  0  0  0  0  0  0  0  0  0  0
    7.7760  -19.5140   -1.3470 C   0  0  0  0  0  0  0  0  0  0  0  0
    9.1130  -19.6890   -0.7440 N   0  3  0  0  0  0  0  0  0  0  0  0
    9.2430  -21.1270   -0.3540 C   0  0  0  0  0  0  0  0  0  0  0  0
   10.6120  -21.3300    0.3500 C   0  0  0  0  0  0  0  0  0  0  0  0
   11.6810  -20.8910   -0.5920 N   0  0  0  0  0  0  0  0  0  0  0  0
   12.8680  -21.5410   -0.7170 C   0  0  0  0  0  0  0  0  0  0  0  0
   13.7550  -21.0470   -1.4060 O   0  0  0  0  0  0  0  0  0  0  0  0
   13.1190  -22.8860   -0.0370 C   0  0  0  0  0  0  0  0  0  0  0  0
   13.0910  -22.6710    1.4310 O   0  0  0  0  0  0  0  0  0  0  0  0
   14.0730  -23.4140    2.2160 C   0  0  0  0  0  0  0  0  0  0  0  0
   15.3740  -22.6070    2.1630 C   0  0  0  0  0  0  0  0  0  0  0  0
   16.4350  -23.4280    2.6280 O   0  0  0  0  0  0  0  0  0  0  0  0
   17.6990  -22.7840    2.5420 C   0  0  0  0  0  0  0  0  0  0  0  0
   18.7940  -23.7840    2.9050 C   0  0  0  0  0  0  0  0  0  0  0  0
   20.0630  -23.2140    2.6110 O   0  0  0  0  0  0  0  0  0  0  0  0
   21.1320  -24.1300    2.8110 C   0  0  0  0  0  0  0  0  0  0  0  0
   22.4550  -23.4430    2.4660 C   0  0  0  0  0  0  0  0  0  0  0  0
   23.4980  -24.4750    2.5810 N   0  0  0  0  0  0  0  0  0  0  0  0
   24.8310  -24.1500    2.3460 C   0  0  0  0  0  0  0  0  0  0  0  0
   25.3750  -22.9160    2.7380 C   0  0  0  0  0  0  0  0  0  0  0  0
   26.7210  -22.6350    2.4900 C   0  0  0  0  0  0  0  0  0  0  0  0
   27.5410  -23.5730    1.8540 C   0  0  0  0  0  0  0  0  0  0  0  0
   26.9870  -24.7950    1.4740 C   0  0  0  0  0  0  0  0  0  0  0  0
   25.6580  -25.0840    1.7120 C   0  0  0  0  0  0  0  0  0  0  0  0
   25.3880  -26.3940    1.1900 C   0  0  0  0  0  0  0  0  0  0  0  0
   24.3320  -27.0170    1.1460 O   0  0  0  0  0  0  0  0  0  0  0  0
   26.5680  -26.8900    0.6510 N   0  0  0  0  0  0  0  0  0  0  0  0
   26.8020  -28.2350    0.1050 C   0  0  2  0  0  0  0  0  0  0  0  0
   25.9840  -28.3690   -1.2060 C   0  0  0  0  0  0  0  0  0  0  0  0
   26.1690  -29.8210   -1.7050 C   0  0  0  0  0  0  0  0  0  0  0  0
   25.6230  -30.7570   -0.6420 C   0  0  0  0  0  0  0  0  0  0  0  0
   25.0350  -31.7760   -0.8950 O   0  0  0  0  0  0  0  0  0  0  0  0
   25.8060  -30.4700    0.6720 N   0  0  0  0  0  0  0  0  0  0  0  0
   26.3580  -29.3070    1.1150 C   0  0  0  0  0  0  0  0  0  0  0  0
   26.5080  -29.2210    2.3130 O   0  0  0  0  0  0  0  0  0  0  0  0
   27.5590  -25.9390    0.8050 C   0  0  0  0  0  0  0  0  0  0  0  0
   28.6960  -26.1160    0.3950 O   0  0  0  0  0  0  0  0  0  0  0  0
   11.5420  -19.5160   -1.1520 C   0  0  0  0  0  0  0  0  0  0  0  0
   10.1440  -19.4200   -1.8040 C   0  0  0  0  0  0  0  0  0  0  0  0
    6.1220  -16.2890   -2.5620 C   0  0  0  0  0  0  0  0  0  0  0  0
    7.5320  -15.9740   -3.6870 S   0  0  0  0  0  0  0  0  0  0  0  0
    7.5660  -14.2460   -3.9710 C   0  0  0  0  0  0  0  0  0  0  0  0
    6.5000  -13.4020   -3.6260 C   0  0  0  0  0  0  0  0  0  0  0  0
    6.5870  -12.0340   -3.8620 C   0  0  0  0  0  0  0  0  0  0  0  0
    7.7280  -11.4930   -4.4470 C   0  0  0  0  0  0  0  0  0  0  0  0
    8.7850  -12.3270   -4.8010 C   0  0  0  0  0  0  0  0  0  0  0  0
    8.7060  -13.6940   -4.5680 C   0  0  0  0  0  0  0  0  0  0  0  0
    3.4050  -19.3350   -2.7610 C   0  0  0  0  0  0  0  0  0  0  0  0
    4.2660  -20.9140   -2.6180 S   0  0  0  0  0  0  0  0  0  0  0  0
    3.6110  -21.8540   -3.4620 O   0  0  0  0  0  0  0  0  0  0  0  0
    5.6610  -20.7320   -2.8820 O   0  0  0  0  0  0  0  0  0  0  0  0
    3.9950  -21.3770   -0.7970 C   0  0  0  0  0  0  0  0  0  0  0  0
    4.9210  -20.8510    0.0560 F   0  0  0  0  0  0  0  0  0  0  0  0
    2.8010  -20.9730   -0.2970 F   0  0  0  0  0  0  0  0  0  0  0  0
    4.0430  -22.7050   -0.5480 F   0  0  0  0  0  0  0  0  0  0  0  0
    2.2350  -19.2550   -3.5230 C   0  0  0  0  0  0  0  0  0  0  0  0
   -3.3900  -17.9540   -1.6580 C   0  0  0  0  0  0  0  0  0  0  0  0
   -4.3670  -18.0170   -0.6740 C   0  0  0  0  0  0  0  0  0  0  0  0
   -7.8880  -18.3920   -0.3530 C   0  0  0  0  0  0  0  0  0  0  0  0
   -8.9260  -19.0740    0.5730 C   0  0  0  0  0  0  0  0  0  0  0  0
  -10.8250  -17.0550    3.3860 C   0  0  0  0  0  0  0  0  0  0  0  0
  -13.3970  -15.1010    4.6530 H   0  0  0  0  0  0  0  0  0  0  0  0
  -12.4070  -14.8350    3.1980 H   0  0  0  0  0  0  0  0  0  0  0  0
  -11.6390  -14.8650    4.8030 H   0  0  0  0  0  0  0  0  0  0  0  0
  -13.1730  -17.2230    5.9500 H   0  0  0  0  0  0  0  0  0  0  0  0
  -11.4260  -16.9050    6.0670 H   0  0  0  0  0  0  0  0  0  0  0  0
  -12.0060  -18.4640    5.4340 H   0  0  0  0  0  0  0  0  0  0  0  0
  -13.7130  -18.3650    3.7820 H   0  0  0  0  0  0  0  0  0  0  0  0
  -14.2610  -16.7370    3.3180 H   0  0  0  0  0  0  0  0  0  0  0  0
  -12.7470  -16.8220    1.3120 H   0  0  0  0  0  0  0  0  0  0  0  0
  -13.9120  -18.1670    1.2960 H   0  0  0  0  0  0  0  0  0  0  0  0
  -12.2230  -19.0100   -0.7440 H   0  0  0  0  0  0  0  0  0  0  0  0
  -12.3640  -21.1170   -2.0160 H   0  0  0  0  0  0  0  0  0  0  0  0
  -12.1080  -23.3410    1.6430 H   0  0  0  0  0  0  0  0  0  0  0  0
  -11.9700  -21.2340    2.9130 H   0  0  0  0  0  0  0  0  0  0  0  0
   -9.8720  -20.3210    2.5090 H   0  0  0  0  0  0  0  0  0  0  0  0
   -9.3210  -19.3360    3.8860 H   0  0  0  0  0  0  0  0  0  0  0  0
   -8.6500  -17.6790    2.1030 H   0  0  0  0  0  0  0  0  0  0  0  0
   -7.1020  -19.0440    3.4220 H   0  0  0  0  0  0  0  0  0  0  0  0
   -7.2890  -20.3170    2.1930 H   0  0  0  0  0  0  0  0  0  0  0  0
   -5.2300  -18.9540    1.7440 H   0  0  0  0  0  0  0  0  0  0  0  0
   -6.2240  -17.4800    1.6630 H   0  0  0  0  0  0  0  0  0  0  0  0
   -6.5890  -20.0430   -2.2680 H   0  0  0  0  0  0  0  0  0  0  0  0
   -4.8610  -19.9100   -4.0130 H   0  0  0  0  0  0  0  0  0  0  0  0
   -0.9700  -18.9260   -2.6120 H   0  0  0  0  0  0  0  0  0  0  0  0
    1.2710  -16.0900   -2.8040 H   0  0  0  0  0  0  0  0  0  0  0  0
    3.3280  -16.1880   -1.4570 H   0  0  0  0  0  0  0  0  0  0  0  0
    5.0850  -18.3720   -0.3650 H   0  0  0  0  0  0  0  0  0  0  0  0
    6.3050  -18.3590   -3.0660 H   0  0  0  0  0  0  0  0  0  0  0  0
    8.2990  -17.4240   -1.5900 H   0  0  0  0  0  0  0  0  0  0  0  0
    7.2190  -17.7510   -0.2140 H   0  0  0  0  0  0  0  0  0  0  0  0
    7.7880  -19.8280   -2.3910 H   0  0  0  0  0  0  0  0  0  0  0  0
    7.0360  -20.0990   -0.8010 H   0  0  0  0  0  0  0  0  0  0  0  0
    9.2360  -19.0730    0.0470 H   0  0  0  0  0  0  0  0  0  0  0  0
    8.4360  -21.3970    0.3280 H   0  0  0  0  0  0  0  0  0  0  0  0
    9.1910  -21.7540   -1.2440 H   0  0  0  0  0  0  0  0  0  0  0  0
   10.7480  -22.3820    0.6000 H   0  0  0  0  0  0  0  0  0  0  0  0
   10.6520  -20.7320    1.2610 H   0  0  0  0  0  0  0  0  0  0  0  0
   14.0930  -23.2750   -0.3350 H   0  0  0  0  0  0  0  0  0  0  0  0
   12.3420  -23.5950   -0.3220 H   0  0  0  0  0  0  0  0  0  0  0  0
   13.7330  -23.5130    3.2470 H   0  0  0  0  0  0  0  0  0  0  0  0
   14.2270  -24.4040    1.7870 H   0  0  0  0  0  0  0  0  0  0  0  0
   15.2860  -21.7260    2.7980 H   0  0  0  0  0  0  0  0  0  0  0  0
   15.5720  -22.2970    1.1370 H   0  0  0  0  0  0  0  0  0  0  0  0
   17.8560  -22.4230    1.5260 H   0  0  0  0  0  0  0  0  0  0  0  0
   17.7280  -21.9430    3.2350 H   0  0  0  0  0  0  0  0  0  0  0  0
   18.6610  -24.6970    2.3250 H   0  0  0  0  0  0  0  0  0  0  0  0
   18.7370  -24.0180    3.9680 H   0  0  0  0  0  0  0  0  0  0  0  0
   21.1480  -24.4500    3.8530 H   0  0  0  0  0  0  0  0  0  0  0  0
   20.9930  -24.9980    2.1670 H   0  0  0  0  0  0  0  0  0  0  0  0
   22.6510  -22.6290    3.1640 H   0  0  0  0  0  0  0  0  0  0  0  0
   22.4230  -23.0500    1.4500 H   0  0  0  0  0  0  0  0  0  0  0  0
   23.2460  -25.4210    2.8310 H   0  0  0  0  0  0  0  0  0  0  0  0
   24.7530  -22.1840    3.2310 H   0  0  0  0  0  0  0  0  0  0  0  0
   27.1330  -21.6830    2.7930 H   0  0  0  0  0  0  0  0  0  0  0  0
   28.5810  -23.3550    1.6610 H   0  0  0  0  0  0  0  0  0  0  0  0
   27.8640  -28.3780   -0.0940 H   0  0  0  0  0  0  0  0  0  0  0  0
   24.9300  -28.1710   -1.0120 H   0  0  0  0  0  0  0  0  0  0  0  0
   26.3540  -27.6660   -1.9520 H   0  0  0  0  0  0  0  0  0  0  0  0
   27.2280  -30.0240   -1.8680 H   0  0  0  0  0  0  0  0  0  0  0  0
   25.6240  -29.9630   -2.6380 H   0  0  0  0  0  0  0  0  0  0  0  0
   25.5180  -31.1550    1.3560 H   0  0  0  0  0  0  0  0  0  0  0  0
   11.6320  -18.7780   -0.3550 H   0  0  0  0  0  0  0  0  0  0  0  0
   12.3150  -19.3390   -1.9000 H   0  0  0  0  0  0  0  0  0  0  0  0
   10.0560  -20.1590   -2.6000 H   0  0  0  0  0  0  0  0  0  0  0  0
    9.9970  -18.4220   -2.2170 H   0  0  0  0  0  0  0  0  0  0  0  0
    6.1890  -15.6470   -1.6830 H   0  0  0  0  0  0  0  0  0  0  0  0
    5.1790  -16.1040   -3.0760 H   0  0  0  0  0  0  0  0  0  0  0  0
    5.6090  -13.8150   -3.1760 H   0  0  0  0  0  0  0  0  0  0  0  0
    5.7650  -11.3880   -3.5900 H   0  0  0  0  0  0  0  0  0  0  0  0
    7.7930  -10.4300   -4.6260 H   0  0  0  0  0  0  0  0  0  0  0  0
    9.6700  -11.9090   -5.2590 H   0  0  0  0  0  0  0  0  0  0  0  0
    9.5290  -14.3350   -4.8490 H   0  0  0  0  0  0  0  0  0  0  0  0
    1.9260  -20.1110   -4.1040 H   0  0  0  0  0  0  0  0  0  0  0  0
   -2.4990  -17.3680   -1.4870 H   0  0  0  0  0  0  0  0  0  0  0  0
   -4.2320  -17.4870    0.2570 H   0  0  0  0  0  0  0  0  0  0  0  0
   -7.9580  -17.3080   -0.2580 H   0  0  0  0  0  0  0  0  0  0  0  0
   -8.0670  -18.6780   -1.3890 H   0  0  0  0  0  0  0  0  0  0  0  0
   -8.8540  -20.1570    0.4690 H   0  0  0  0  0  0  0  0  0  0  0  0
   -9.9300  -18.7490    0.2990 H   0  0  0  0  0  0  0  0  0  0  0  0
  -10.0460  -17.0550    4.1480 H   0  0  0  0  0  0  0  0  0  0  0  0
  -10.6240  -16.2670    2.6600 H   0  0  0  0  0  0  0  0  0  0  0  0
  1  2  1  0  0  0  0
  1 98  1  0  0  0  0
  1 99  1  0  0  0  0
  1100  1  0  0  0  0
  2  3  1  0  0  0  0
  2  4  1  0  0  0  0
  2 97  1  0  0  0  0
  3101  1  0  0  0  0
  3102  1  0  0  0  0
  3103  1  0  0  0  0
  4  5  1  0  0  0  0
  4104  1  0  0  0  0
  4105  1  0  0  0  0
  5  6  1  0  0  0  0
  5106  1  0  0  0  0
  5107  1  0  0  0  0
  6  7  1  0  0  0  0
  6 14  2  0  0  0  0
  7  8  1  0  0  0  0
  7 13  2  0  0  0  0
  8  9  2  0  0  0  0
  8108  1  0  0  0  0
  9 10  1  0  0  0  0
  9109  1  0  0  0  0
 10 11  1  0  0  0  0
 10 12  2  0  0  0  0
 12 13  1  0  0  0  0
 12110  1  0  0  0  0
 13111  1  0  0  0  0
 14 15  1  0  0  0  0
 14 97  1  0  0  0  0
 15 16  1  0  0  0  0
 15112  1  0  0  0  0
 15113  1  0  0  0  0
 16 17  1  0  0  0  0
 16 96  1  0  0  0  0
 16114  1  0  0  0  0
 17 18  1  0  0  0  0
 17115  1  0  0  0  0
 17116  1  0  0  0  0
 18 19  1  0  0  0  0
 18117  1  0  0  0  0
 18118  1  0  0  0  0
 19 20  1  0  0  0  0
 19 95  1  0  0  0  0
 20 21  1  0  0  0  0
 20 94  2  0  0  0  0
 21 22  2  0  0  0  0
 21119  1  0  0  0  0
 22 23  1  0  0  0  0
 22120  1  0  0  0  0
 23 24  1  0  0  0  0
 23 93  2  0  0  0  0
 24 25  2  0  0  0  0
 24 26  1  0  0  0  0
 26 27  1  0  0  0  0
 26121  1  0  0  0  0
 27 28  2  0  0  0  0
 27 29  2  0  0  0  0
 27 30  1  0  0  0  0
 30 31  1  0  0  0  0
 30 92  2  0  0  0  0
 31 32  2  0  0  0  0
 31122  1  0  0  0  0
 32 33  1  0  0  0  0
 32123  1  0  0  0  0
 33 34  1  0  0  0  0
 33 84  2  0  0  0  0
 34 35  1  0  0  0  0
 34124  1  0  0  0  0
 35 36  1  0  0  0  0
 35 76  1  0  0  0  0
 35125  1  0  0  0  0
 36 37  1  0  0  0  0
 36126  1  0  0  0  0
 36127  1  0  0  0  0
 37 38  1  0  0  0  0
 37128  1  0  0  0  0
 37129  1  0  0  0  0
 38 39  1  0  0  0  0
 38 75  1  0  0  0  0
 38130  1  0  0  0  0
 39 40  1  0  0  0  0
 39131  1  0  0  0  0
 39132  1  0  0  0  0
 40 41  1  0  0  0  0
 40133  1  0  0  0  0
 40134  1  0  0  0  0
 41 42  1  0  0  0  0
 41 74  1  0  0  0  0
 42 43  2  0  0  0  0
 42 44  1  0  0  0  0
 44 45  1  0  0  0  0
 44135  1  0  0  0  0
 44136  1  0  0  0  0
 45 46  1  0  0  0  0
 46 47  1  0  0  0  0
 46137  1  0  0  0  0
 46138  1  0  0  0  0
 47 48  1  0  0  0  0
 47139  1  0  0  0  0
 47140  1  0  0  0  0
 48 49  1  0  0  0  0
 49 50  1  0  0  0  0
 49141  1  0  0  0  0
 49142  1  0  0  0  0
 50 51  1  0  0  0  0
 50143  1  0  0  0  0
 50144  1  0  0  0  0
 51 52  1  0  0  0  0
 52 53  1  0  0  0  0
 52145  1  0  0  0  0
 52146  1  0  0  0  0
 53 54  1  0  0  0  0
 53147  1  0  0  0  0
 53148  1  0  0  0  0
 54 55  1  0  0  0  0
 54149  1  0  0  0  0
 55 56  1  0  0  0  0
 55 60  2  0  0  0  0
 56 57  2  0  0  0  0
 56150  1  0  0  0  0
 57 58  1  0  0  0  0
 57151  1  0  0  0  0
 58 59  2  0  0  0  0
 58152  1  0  0  0  0
 59 60  1  0  0  0  0
 59 72  1  0  0  0  0
 60 61  1  0  0  0  0
 61 62  2  0  0  0  0
 61 63  1  0  0  0  0
 63 64  1  0  0  0  0
 63 72  1  0  0  0  0
 64 65  1  0  0  0  0
 64 70  1  0  0  0  0
 64153  1  0  0  0  0
 65 66  1  0  0  0  0
 65154  1  0  0  0  0
 65155  1  0  0  0  0
 66 67  1  0  0  0  0
 66156  1  0  0  0  0
 66157  1  0  0  0  0
 67 68  2  0  0  0  0
 67 69  1  0  0  0  0
 69 70  1  0  0  0  0
 69158  1  0  0  0  0
 70 71  2  0  0  0  0
 72 73  2  0  0  0  0
 74 75  1  0  0  0  0
 74159  1  0  0  0  0
 74160  1  0  0  0  0
 75161  1  0  0  0  0
 75162  1  0  0  0  0
 76 77  1  0  0  0  0
 76163  1  0  0  0  0
 76164  1  0  0  0  0
 77 78  1  0  0  0  0
 78 79  1  0  0  0  0
 78 83  2  0  0  0  0
 79 80  2  0  0  0  0
 79165  1  0  0  0  0
 80 81  1  0  0  0  0
 80166  1  0  0  0  0
 81 82  2  0  0  0  0
 81167  1  0  0  0  0
 82 83  1  0  0  0  0
 82168  1  0  0  0  0
 83169  1  0  0  0  0
 84 85  1  0  0  0  0
 84 92  1  0  0  0  0
 85 86  2  0  0  0  0
 85 87  2  0  0  0  0
 85 88  1  0  0  0  0
 88 89  1  0  0  0  0
 88 90  1  0  0  0  0
 88 91  1  0  0  0  0
 92170  1  0  0  0  0
 93 94  1  0  0  0  0
 93171  1  0  0  0  0
 94172  1  0  0  0  0
 95 96  1  0  0  0  0
 95173  1  0  0  0  0
 95174  1  0  0  0  0
 96175  1  0  0  0  0
 96176  1  0  0  0  0
 97177  1  0  0  0  0
 97178  1  0  0  0  0
M  CHG  1  16   1
M  CHG  1  38   1
M  END
>  <Compound ID>
651

>  <Uniprot>
Q07817

>  <Target>
BCL-xL

>  <E3 ligase>
CRBN

>  <IC50 (nM, Cellular activities)>
211

>  <Assay (Cellular activities, IC50)>
Inhibit viability of MOLT-4 cells

>  <Article DOI>
10.1016/j.ejmech.2020.112186

>  <Molecular Weight>
1419.078

>  <Exact Mass>
1417.46

>  <XLogP3>
9.2399998

>  <Heavy Atom Count>
97

>  <Ring Count>
10

>  <Hydrogen Bond Acceptor Count>
19

>  <Hydrogen Bond Donor Count>
4

>  <Rotatable Bond Count>
29

>  <Topological Polar Surface Area>
262.70999

>  <Molecular Formula>
C68H79ClF3N9O13S3

>  <InChI>
InChI=1S/C68H79ClF3N9O13S3/c1-67(2)25-23-54(46-11-15-49(69)16-12-46)48(42-67)43-78-30-32-79(33-31-78)51-17-13-47(14-18-51)63(84)76-97(90,91)53-19-20-56(59(41-53)96(88,89)68(70,71)72)74-50(45-95-52-7-4-3-5-8-52)24-27-77-28-34-80(35-29-77)61(83)44-94-40-39-93-38-37-92-36-26-73-57-10-6-9-55-62(57)66(87)81(65(55)86)58-21-22-60(82)75-64(58)85/h3-20,41,50,58,73-74H,21-40,42-45H2,1-2H3,(H,76,84)(H,75,82,85)/t50-,58?/m1/s1

>  <InChI Key>
AAJKURLKPBZSFJ-XIMDYXIDSA-N

$$$$
652
  MOE2018           3D

185194  0  0  1  0  0  0  0  0999 V2000
  -34.8490   -8.8120   -0.9670 C   0  0  0  0  0  0  0  0  0  0  0  0
  -34.7790  -10.3440   -0.8490 C   0  0  0  0  0  0  0  0  0  0  0  0
  -33.7720  -10.8280   -1.9150 C   0  0  0  0  0  0  0  0  0  0  0  0
  -36.2070  -10.8880   -1.0520 C   0  0  0  0  0  0  0  0  0  0  0  0
  -36.1910  -12.4300   -1.0560 C   0  0  0  0  0  0  0  0  0  0  0  0
  -35.3750  -12.9660    0.1170 C   0  0  0  0  0  0  0  0  0  0  0  0
  -35.6060  -14.3780    0.4040 C   0  0  0  0  0  0  0  0  0  0  0  0
  -36.1180  -14.7820    1.6450 C   0  0  0  0  0  0  0  0  0  0  0  0
  -36.3100  -16.1280    1.9300 C   0  0  0  0  0  0  0  0  0  0  0  0
  -36.0020  -17.0930    0.9700 C   0  0  0  0  0  0  0  0  0  0  0  0
  -36.2220  -18.7730    1.3290 Cl  0  0  0  0  0  0  0  0  0  0  0  0
  -35.5190  -16.7040   -0.2800 C   0  0  0  0  0  0  0  0  0  0  0  0
  -35.3290  -15.3560   -0.5610 C   0  0  0  0  0  0  0  0  0  0  0  0
  -34.4950  -12.2040    0.8160 C   0  0  0  0  0  0  0  0  0  0  0  0
  -33.6540  -12.7620    1.9440 C   0  0  0  0  0  0  0  0  0  0  0  0
  -32.3530  -12.9400    1.3040 N   0  3  0  0  0  0  0  0  0  0  0  0
  -32.3060  -14.3250    0.7270 C   0  0  0  0  0  0  0  0  0  0  0  0
  -30.9470  -14.5240    0.0080 C   0  0  0  0  0  0  0  0  0  0  0  0
  -29.8890  -14.3220    1.0280 N   0  0  0  0  0  0  0  0  0  0  0  0
  -28.6180  -14.8680    0.8000 C   0  0  0  0  0  0  0  0  0  0  0  0
  -28.1670  -15.1650   -0.4930 C   0  0  0  0  0  0  0  0  0  0  0  0
  -26.9010  -15.7030   -0.6760 C   0  0  0  0  0  0  0  0  0  0  0  0
  -26.0560  -15.9560    0.4210 C   0  0  0  0  0  0  0  0  0  0  0  0
  -24.7150  -16.5210    0.2440 C   0  0  0  0  0  0  0  0  0  0  0  0
  -23.9440  -16.8110    1.1450 O   0  0  0  0  0  0  0  0  0  0  0  0
  -24.2020  -16.7550   -0.9680 N   0  0  0  0  0  0  0  0  0  0  0  0
  -23.3730  -15.4500   -1.5330 S   0  0  0  0  0  0  0  0  0  0  0  0
  -23.9270  -14.2750   -0.9700 O   0  0  0  0  0  0  0  0  0  0  0  0
  -23.3770  -15.5230   -2.9450 O   0  0  0  0  0  0  0  0  0  0  0  0
  -21.6810  -15.6610   -0.9240 C   0  0  0  0  0  0  0  0  0  0  0  0
  -21.3080  -15.1680    0.3290 C   0  0  0  0  0  0  0  0  0  0  0  0
  -20.0060  -15.3080    0.7880 C   0  0  0  0  0  0  0  0  0  0  0  0
  -19.0450  -15.9260   -0.0140 C   0  0  0  0  0  0  0  0  0  0  0  0
  -17.7340  -15.9870    0.4710 N   0  0  0  0  0  0  0  0  0  0  0  0
  -16.8390  -14.8870    0.0330 C   0  0  2  0  0  0  0  0  0  0  0  0
  -15.4090  -15.3020    0.4450 C   0  0  0  0  0  0  0  0  0  0  0  0
  -14.8130  -16.0360   -0.7620 C   0  0  0  0  0  0  0  0  0  0  0  0
  -13.3910  -16.2630   -0.4460 N   0  3  0  0  0  0  0  0  0  0  0  0
  -12.6100  -15.0480   -0.8490 C   0  0  0  0  0  0  0  0  0  0  0  0
  -11.1450  -15.2540   -0.4010 C   0  0  0  0  0  0  0  0  0  0  0  0
  -10.6280  -16.4990   -1.0450 N   0  0  0  0  0  0  0  0  0  0  0  0
   -9.3140  -16.5520   -1.3880 C   0  0  0  0  0  0  0  0  0  0  0  0
   -8.6370  -15.5290   -1.3310 O   0  0  0  0  0  0  0  0  0  0  0  0
   -8.6590  -17.8470   -1.8740 C   0  0  0  0  0  0  0  0  0  0  0  0
   -8.7590  -18.8630   -0.7980 O   0  0  0  0  0  0  0  0  0  0  0  0
   -7.9490  -20.0650   -0.9550 C   0  0  0  0  0  0  0  0  0  0  0  0
   -6.6070  -19.7730   -0.2820 C   0  0  0  0  0  0  0  0  0  0  0  0
   -5.7420  -20.8750   -0.5090 O   0  0  0  0  0  0  0  0  0  0  0  0
   -4.4610  -20.6940    0.0810 C   0  0  0  0  0  0  0  0  0  0  0  0
   -3.5860  -21.9010   -0.2480 C   0  0  0  0  0  0  0  0  0  0  0  0
   -2.2770  -21.6870    0.2640 O   0  0  0  0  0  0  0  0  0  0  0  0
   -1.3950  -22.7600   -0.0420 C   0  0  0  0  0  0  0  0  0  0  0  0
   -0.0090  -22.4440    0.5140 C   0  0  0  0  0  0  0  0  0  0  0  0
    0.9190  -23.4120    0.0400 O   0  0  0  0  0  0  0  0  0  0  0  0
    2.2450  -23.1490    0.4820 C   0  0  0  0  0  0  0  0  0  0  0  0
    3.2030  -24.1710   -0.1330 C   0  0  0  0  0  0  0  0  0  0  0  0
    4.5430  -23.8150    0.3640 N   0  0  0  0  0  0  0  0  0  0  0  0
    5.2440  -24.5900    1.2850 C   0  0  0  0  0  0  0  0  0  0  0  0
    4.5960  -25.4040    2.2270 C   0  0  0  0  0  0  0  0  0  0  0  0
    5.3460  -26.1560    3.1360 C   0  0  0  0  0  0  0  0  0  0  0  0
    6.7430  -26.1030    3.1230 C   0  0  0  0  0  0  0  0  0  0  0  0
    7.3730  -25.2840    2.1870 C   0  0  0  0  0  0  0  0  0  0  0  0
    6.6430  -24.5400    1.2820 C   0  0  0  0  0  0  0  0  0  0  0  0
    7.5660  -23.8110    0.4570 C   0  0  0  0  0  0  0  0  0  0  0  0
    7.3470  -23.0270   -0.4600 O   0  0  0  0  0  0  0  0  0  0  0  0
    8.8520  -24.1240    0.8790 N   0  0  0  0  0  0  0  0  0  0  0  0
   10.1160  -23.7120    0.2520 C   0  0  2  0  0  0  0  0  0  0  0  0
   10.2710  -22.1810    0.4450 C   0  0  0  0  0  0  0  0  0  0  0  0
   11.5540  -21.7590   -0.3080 C   0  0  0  0  0  0  0  0  0  0  0  0
   11.3690  -22.0920   -1.7770 C   0  0  0  0  0  0  0  0  0  0  0  0
   11.7890  -21.4040   -2.6710 O   0  0  0  0  0  0  0  0  0  0  0  0
   10.7210  -23.2290   -2.1380 N   0  0  0  0  0  0  0  0  0  0  0  0
   10.1060  -24.0550   -1.2470 C   0  0  0  0  0  0  0  0  0  0  0  0
    9.6160  -25.0590   -1.7160 O   0  0  0  0  0  0  0  0  0  0  0  0
    8.7690  -25.0160    1.9310 C   0  0  0  0  0  0  0  0  0  0  0  0
    9.7620  -25.4440    2.4980 O   0  0  0  0  0  0  0  0  0  0  0  0
  -11.4600  -17.7310   -0.9090 C   0  0  0  0  0  0  0  0  0  0  0  0
  -12.9200  -17.3890   -1.3050 C   0  0  0  0  0  0  0  0  0  0  0  0
  -17.2600  -13.5680    0.7160 C   0  0  0  0  0  0  0  0  0  0  0  0
  -16.2160  -12.2690   -0.0430 S   0  0  0  0  0  0  0  0  0  0  0  0
  -16.5020  -10.7980    0.8630 C   0  0  0  0  0  0  0  0  0  0  0  0
  -15.6410   -9.7140    0.6550 C   0  0  0  0  0  0  0  0  0  0  0  0
  -15.8200   -8.5290    1.3590 C   0  0  0  0  0  0  0  0  0  0  0  0
  -16.8610   -8.4090    2.2750 C   0  0  0  0  0  0  0  0  0  0  0  0
  -17.7270   -9.4790    2.4810 C   0  0  0  0  0  0  0  0  0  0  0  0
  -17.5550  -10.6670    1.7800 C   0  0  0  0  0  0  0  0  0  0  0  0
  -19.4020  -16.4810   -1.2530 C   0  0  0  0  0  0  0  0  0  0  0  0
  -18.2410  -17.4740   -2.2150 S   0  0  0  0  0  0  0  0  0  0  0  0
  -18.9200  -17.9370   -3.3770 O   0  0  0  0  0  0  0  0  0  0  0  0
  -17.0550  -16.7140   -2.4690 O   0  0  0  0  0  0  0  0  0  0  0  0
  -17.8500  -18.9370   -1.0640 C   0  0  0  0  0  0  0  0  0  0  0  0
  -17.5750  -20.0910   -1.7110 F   0  0  0  0  0  0  0  0  0  0  0  0
  -18.8520  -19.2540   -0.2090 F   0  0  0  0  0  0  0  0  0  0  0  0
  -16.7580  -18.7450   -0.2640 F   0  0  0  0  0  0  0  0  0  0  0  0
  -20.7160  -16.3130   -1.7020 C   0  0  0  0  0  0  0  0  0  0  0  0
  -26.5270  -15.6550    1.7100 C   0  0  0  0  0  0  0  0  0  0  0  0
  -27.7920  -15.1200    1.9000 C   0  0  0  0  0  0  0  0  0  0  0  0
  -29.9000  -12.9820    1.6660 C   0  0  0  0  0  0  0  0  0  0  0  0
  -31.2840  -12.8250    2.3480 C   0  0  0  0  0  0  0  0  0  0  0  0
  -34.3020  -10.7070    0.5740 C   0  0  0  0  0  0  0  0  0  0  0  0
  -35.1850   -8.5400   -1.9680 H   0  0  0  0  0  0  0  0  0  0  0  0
  -33.8610   -8.3880   -0.7870 H   0  0  0  0  0  0  0  0  0  0  0  0
  -35.5510   -8.4220   -0.2300 H   0  0  0  0  0  0  0  0  0  0  0  0
  -34.1350  -10.5580   -2.9070 H   0  0  0  0  0  0  0  0  0  0  0  0
  -33.6660  -11.9110   -1.8490 H   0  0  0  0  0  0  0  0  0  0  0  0
  -32.8050  -10.3570   -1.7410 H   0  0  0  0  0  0  0  0  0  0  0  0
  -36.8450  -10.5360   -0.2420 H   0  0  0  0  0  0  0  0  0  0  0  0
  -36.5980  -10.5290   -2.0040 H   0  0  0  0  0  0  0  0  0  0  0  0
  -35.7490  -12.7800   -1.9890 H   0  0  0  0  0  0  0  0  0  0  0  0
  -37.2140  -12.7980   -0.9780 H   0  0  0  0  0  0  0  0  0  0  0  0
  -36.3660  -14.0380    2.3880 H   0  0  0  0  0  0  0  0  0  0  0  0
  -36.6970  -16.4270    2.8930 H   0  0  0  0  0  0  0  0  0  0  0  0
  -35.2930  -17.4490   -1.0280 H   0  0  0  0  0  0  0  0  0  0  0  0
  -34.9640  -15.0590   -1.5330 H   0  0  0  0  0  0  0  0  0  0  0  0
  -34.0520  -13.7120    2.3000 H   0  0  0  0  0  0  0  0  0  0  0  0
  -33.5920  -12.0590    2.7750 H   0  0  0  0  0  0  0  0  0  0  0  0
  -32.2130  -12.2450    0.5840 H   0  0  0  0  0  0  0  0  0  0  0  0
  -32.4070  -15.0580    1.5270 H   0  0  0  0  0  0  0  0  0  0  0  0
  -33.1200  -14.4520    0.0130 H   0  0  0  0  0  0  0  0  0  0  0  0
  -30.8370  -13.7960   -0.7960 H   0  0  0  0  0  0  0  0  0  0  0  0
  -30.8840  -15.5310   -0.4030 H   0  0  0  0  0  0  0  0  0  0  0  0
  -28.8030  -14.9760   -1.3450 H   0  0  0  0  0  0  0  0  0  0  0  0
  -26.5590  -15.9310   -1.6750 H   0  0  0  0  0  0  0  0  0  0  0  0
  -24.3090  -17.6230   -1.4730 H   0  0  0  0  0  0  0  0  0  0  0  0
  -22.0420  -14.6720    0.9470 H   0  0  0  0  0  0  0  0  0  0  0  0
  -19.7360  -14.9390    1.7660 H   0  0  0  0  0  0  0  0  0  0  0  0
  -17.4180  -16.7300    1.0780 H   0  0  0  0  0  0  0  0  0  0  0  0
  -16.8920  -14.7210   -1.0430 H   0  0  0  0  0  0  0  0  0  0  0  0
  -14.8140  -14.4210    0.6830 H   0  0  0  0  0  0  0  0  0  0  0  0
  -15.4420  -15.9630    1.3110 H   0  0  0  0  0  0  0  0  0  0  0  0
  -14.9070  -15.4250   -1.6600 H   0  0  0  0  0  0  0  0  0  0  0  0
  -15.3220  -16.9870   -0.9150 H   0  0  0  0  0  0  0  0  0  0  0  0
  -13.2720  -16.4580    0.5380 H   0  0  0  0  0  0  0  0  0  0  0  0
  -12.6520  -14.9230   -1.9310 H   0  0  0  0  0  0  0  0  0  0  0  0
  -13.0240  -14.1640   -0.3650 H   0  0  0  0  0  0  0  0  0  0  0  0
  -11.1020  -15.3550    0.6830 H   0  0  0  0  0  0  0  0  0  0  0  0
  -10.5410  -14.4010   -0.7110 H   0  0  0  0  0  0  0  0  0  0  0  0
   -7.6110  -17.6620   -2.1080 H   0  0  0  0  0  0  0  0  0  0  0  0
   -9.1730  -18.2060   -2.7660 H   0  0  0  0  0  0  0  0  0  0  0  0
   -8.4360  -20.9130   -0.4730 H   0  0  0  0  0  0  0  0  0  0  0  0
   -7.8010  -20.2840   -2.0120 H   0  0  0  0  0  0  0  0  0  0  0  0
   -6.7550  -19.6360    0.7890 H   0  0  0  0  0  0  0  0  0  0  0  0
   -6.1710  -18.8690   -0.7070 H   0  0  0  0  0  0  0  0  0  0  0  0
   -4.0000  -19.7900   -0.3160 H   0  0  0  0  0  0  0  0  0  0  0  0
   -4.5660  -20.6030    1.1620 H   0  0  0  0  0  0  0  0  0  0  0  0
   -3.5370  -22.0310   -1.3290 H   0  0  0  0  0  0  0  0  0  0  0  0
   -4.0130  -22.7950    0.2070 H   0  0  0  0  0  0  0  0  0  0  0  0
   -1.7680  -23.6790    0.4100 H   0  0  0  0  0  0  0  0  0  0  0  0
   -1.3340  -22.8850   -1.1230 H   0  0  0  0  0  0  0  0  0  0  0  0
   -0.0390  -22.4710    1.6030 H   0  0  0  0  0  0  0  0  0  0  0  0
    0.2990  -21.4520    0.1830 H   0  0  0  0  0  0  0  0  0  0  0  0
    2.5380  -22.1460    0.1730 H   0  0  0  0  0  0  0  0  0  0  0  0
    2.2860  -23.2210    1.5690 H   0  0  0  0  0  0  0  0  0  0  0  0
    3.1740  -24.1120   -1.2210 H   0  0  0  0  0  0  0  0  0  0  0  0
    2.9360  -25.1790    0.1830 H   0  0  0  0  0  0  0  0  0  0  0  0
    4.9740  -22.9690    0.0210 H   0  0  0  0  0  0  0  0  0  0  0  0
    3.5170  -25.4490    2.2500 H   0  0  0  0  0  0  0  0  0  0  0  0
    4.8410  -26.7840    3.8550 H   0  0  0  0  0  0  0  0  0  0  0  0
    7.3230  -26.6850    3.8240 H   0  0  0  0  0  0  0  0  0  0  0  0
   10.9510  -24.2390    0.7140 H   0  0  0  0  0  0  0  0  0  0  0  0
    9.4060  -21.6620    0.0320 H   0  0  0  0  0  0  0  0  0  0  0  0
   10.3640  -21.9450    1.5050 H   0  0  0  0  0  0  0  0  0  0  0  0
   12.4110  -22.3030    0.0890 H   0  0  0  0  0  0  0  0  0  0  0  0
   11.7170  -20.6880   -0.1900 H   0  0  0  0  0  0  0  0  0  0  0  0
   10.6940  -23.4750   -3.1170 H   0  0  0  0  0  0  0  0  0  0  0  0
  -11.0740  -18.5090   -1.5670 H   0  0  0  0  0  0  0  0  0  0  0  0
  -11.4320  -18.0810    0.1230 H   0  0  0  0  0  0  0  0  0  0  0  0
  -13.5570  -18.2600   -1.1510 H   0  0  0  0  0  0  0  0  0  0  0  0
  -12.9570  -17.0920   -2.3530 H   0  0  0  0  0  0  0  0  0  0  0  0
  -17.0810  -13.6210    1.7900 H   0  0  0  0  0  0  0  0  0  0  0  0
  -18.3150  -13.3640    0.5330 H   0  0  0  0  0  0  0  0  0  0  0  0
  -14.8330   -9.7990   -0.0570 H   0  0  0  0  0  0  0  0  0  0  0  0
  -15.1490   -7.6990    1.1950 H   0  0  0  0  0  0  0  0  0  0  0  0
  -16.9960   -7.4890    2.8240 H   0  0  0  0  0  0  0  0  0  0  0  0
  -18.5370   -9.3860    3.1890 H   0  0  0  0  0  0  0  0  0  0  0  0
  -18.2340  -11.4910    1.9420 H   0  0  0  0  0  0  0  0  0  0  0  0
  -20.9930  -16.6960   -2.6730 H   0  0  0  0  0  0  0  0  0  0  0  0
  -25.8950  -15.8430    2.5650 H   0  0  0  0  0  0  0  0  0  0  0  0
  -28.1400  -14.8980    2.8980 H   0  0  0  0  0  0  0  0  0  0  0  0
  -29.1050  -12.9130    2.4090 H   0  0  0  0  0  0  0  0  0  0  0  0
  -29.7620  -12.2060    0.9130 H   0  0  0  0  0  0  0  0  0  0  0  0
  -31.3460  -11.8490    2.8300 H   0  0  0  0  0  0  0  0  0  0  0  0
  -31.4150  -13.6080    3.0950 H   0  0  0  0  0  0  0  0  0  0  0  0
  -34.8820  -10.1440    1.3050 H   0  0  0  0  0  0  0  0  0  0  0  0
  -33.2460  -10.4560    0.6770 H   0  0  0  0  0  0  0  0  0  0  0  0
  1  2  1  0  0  0  0
  1101  1  0  0  0  0
  1102  1  0  0  0  0
  1103  1  0  0  0  0
  2  3  1  0  0  0  0
  2  4  1  0  0  0  0
  2100  1  0  0  0  0
  3104  1  0  0  0  0
  3105  1  0  0  0  0
  3106  1  0  0  0  0
  4  5  1  0  0  0  0
  4107  1  0  0  0  0
  4108  1  0  0  0  0
  5  6  1  0  0  0  0
  5109  1  0  0  0  0
  5110  1  0  0  0  0
  6  7  1  0  0  0  0
  6 14  2  0  0  0  0
  7  8  1  0  0  0  0
  7 13  2  0  0  0  0
  8  9  2  0  0  0  0
  8111  1  0  0  0  0
  9 10  1  0  0  0  0
  9112  1  0  0  0  0
 10 11  1  0  0  0  0
 10 12  2  0  0  0  0
 12 13  1  0  0  0  0
 12113  1  0  0  0  0
 13114  1  0  0  0  0
 14 15  1  0  0  0  0
 14100  1  0  0  0  0
 15 16  1  0  0  0  0
 15115  1  0  0  0  0
 15116  1  0  0  0  0
 16 17  1  0  0  0  0
 16 99  1  0  0  0  0
 16117  1  0  0  0  0
 17 18  1  0  0  0  0
 17118  1  0  0  0  0
 17119  1  0  0  0  0
 18 19  1  0  0  0  0
 18120  1  0  0  0  0
 18121  1  0  0  0  0
 19 20  1  0  0  0  0
 19 98  1  0  0  0  0
 20 21  1  0  0  0  0
 20 97  2  0  0  0  0
 21 22  2  0  0  0  0
 21122  1  0  0  0  0
 22 23  1  0  0  0  0
 22123  1  0  0  0  0
 23 24  1  0  0  0  0
 23 96  2  0  0  0  0
 24 25  2  0  0  0  0
 24 26  1  0  0  0  0
 26 27  1  0  0  0  0
 26124  1  0  0  0  0
 27 28  2  0  0  0  0
 27 29  2  0  0  0  0
 27 30  1  0  0  0  0
 30 31  1  0  0  0  0
 30 95  2  0  0  0  0
 31 32  2  0  0  0  0
 31125  1  0  0  0  0
 32 33  1  0  0  0  0
 32126  1  0  0  0  0
 33 34  1  0  0  0  0
 33 87  2  0  0  0  0
 34 35  1  0  0  0  0
 34127  1  0  0  0  0
 35 36  1  0  0  0  0
 35 79  1  0  0  0  0
 35128  1  0  0  0  0
 36 37  1  0  0  0  0
 36129  1  0  0  0  0
 36130  1  0  0  0  0
 37 38  1  0  0  0  0
 37131  1  0  0  0  0
 37132  1  0  0  0  0
 38 39  1  0  0  0  0
 38 78  1  0  0  0  0
 38133  1  0  0  0  0
 39 40  1  0  0  0  0
 39134  1  0  0  0  0
 39135  1  0  0  0  0
 40 41  1  0  0  0  0
 40136  1  0  0  0  0
 40137  1  0  0  0  0
 41 42  1  0  0  0  0
 41 77  1  0  0  0  0
 42 43  2  0  0  0  0
 42 44  1  0  0  0  0
 44 45  1  0  0  0  0
 44138  1  0  0  0  0
 44139  1  0  0  0  0
 45 46  1  0  0  0  0
 46 47  1  0  0  0  0
 46140  1  0  0  0  0
 46141  1  0  0  0  0
 47 48  1  0  0  0  0
 47142  1  0  0  0  0
 47143  1  0  0  0  0
 48 49  1  0  0  0  0
 49 50  1  0  0  0  0
 49144  1  0  0  0  0
 49145  1  0  0  0  0
 50 51  1  0  0  0  0
 50146  1  0  0  0  0
 50147  1  0  0  0  0
 51 52  1  0  0  0  0
 52 53  1  0  0  0  0
 52148  1  0  0  0  0
 52149  1  0  0  0  0
 53 54  1  0  0  0  0
 53150  1  0  0  0  0
 53151  1  0  0  0  0
 54 55  1  0  0  0  0
 55 56  1  0  0  0  0
 55152  1  0  0  0  0
 55153  1  0  0  0  0
 56 57  1  0  0  0  0
 56154  1  0  0  0  0
 56155  1  0  0  0  0
 57 58  1  0  0  0  0
 57156  1  0  0  0  0
 58 59  1  0  0  0  0
 58 63  2  0  0  0  0
 59 60  2  0  0  0  0
 59157  1  0  0  0  0
 60 61  1  0  0  0  0
 60158  1  0  0  0  0
 61 62  2  0  0  0  0
 61159  1  0  0  0  0
 62 63  1  0  0  0  0
 62 75  1  0  0  0  0
 63 64  1  0  0  0  0
 64 65  2  0  0  0  0
 64 66  1  0  0  0  0
 66 67  1  0  0  0  0
 66 75  1  0  0  0  0
 67 68  1  0  0  0  0
 67 73  1  0  0  0  0
 67160  1  0  0  0  0
 68 69  1  0  0  0  0
 68161  1  0  0  0  0
 68162  1  0  0  0  0
 69 70  1  0  0  0  0
 69163  1  0  0  0  0
 69164  1  0  0  0  0
 70 71  2  0  0  0  0
 70 72  1  0  0  0  0
 72 73  1  0  0  0  0
 72165  1  0  0  0  0
 73 74  2  0  0  0  0
 75 76  2  0  0  0  0
 77 78  1  0  0  0  0
 77166  1  0  0  0  0
 77167  1  0  0  0  0
 78168  1  0  0  0  0
 78169  1  0  0  0  0
 79 80  1  0  0  0  0
 79170  1  0  0  0  0
 79171  1  0  0  0  0
 80 81  1  0  0  0  0
 81 82  1  0  0  0  0
 81 86  2  0  0  0  0
 82 83  2  0  0  0  0
 82172  1  0  0  0  0
 83 84  1  0  0  0  0
 83173  1  0  0  0  0
 84 85  2  0  0  0  0
 84174  1  0  0  0  0
 85 86  1  0  0  0  0
 85175  1  0  0  0  0
 86176  1  0  0  0  0
 87 88  1  0  0  0  0
 87 95  1  0  0  0  0
 88 89  2  0  0  0  0
 88 90  2  0  0  0  0
 88 91  1  0  0  0  0
 91 92  1  0  0  0  0
 91 93  1  0  0  0  0
 91 94  1  0  0  0  0
 95177  1  0  0  0  0
 96 97  1  0  0  0  0
 96178  1  0  0  0  0
 97179  1  0  0  0  0
 98 99  1  0  0  0  0
 98180  1  0  0  0  0
 98181  1  0  0  0  0
 99182  1  0  0  0  0
 99183  1  0  0  0  0
100184  1  0  0  0  0
100185  1  0  0  0  0
M  CHG  1  16   1
M  CHG  1  38   1
M  END
>  <Compound ID>
652

>  <Uniprot>
Q07817

>  <Target>
BCL-xL

>  <E3 ligase>
CRBN

>  <IC50 (nM, Cellular activities)>
126

>  <Assay (Cellular activities, IC50)>
Inhibit viability of MOLT-4 cells

>  <Article DOI>
10.1016/j.ejmech.2020.112186

>  <Molecular Weight>
1463.131

>  <Exact Mass>
1461.4862

>  <XLogP3>
9.1000004

>  <Heavy Atom Count>
100

>  <Ring Count>
10

>  <Hydrogen Bond Acceptor Count>
20

>  <Hydrogen Bond Donor Count>
4

>  <Rotatable Bond Count>
32

>  <Topological Polar Surface Area>
271.94

>  <Molecular Formula>
C70H83ClF3N9O14S3

>  <InChI>
InChI=1S/C70H83ClF3N9O14S3/c1-69(2)25-23-56(48-11-15-51(71)16-12-48)50(44-69)45-80-30-32-81(33-31-80)53-17-13-49(14-18-53)65(86)78-100(92,93)55-19-20-58(61(43-55)99(90,91)70(72,73)74)76-52(47-98-54-7-4-3-5-8-54)24-27-79-28-34-82(35-29-79)63(85)46-97-42-41-96-40-39-95-38-37-94-36-26-75-59-10-6-9-57-64(59)68(89)83(67(57)88)60-21-22-62(84)77-66(60)87/h3-20,43,52,60,75-76H,21-42,44-47H2,1-2H3,(H,78,86)(H,77,84,87)/t52-,60?/m1/s1

>  <InChI Key>
CLCZSXCUDOOMIF-WHNYYDPKSA-N

$$$$
653
  MOE2018           3D

176185  0  0  1  0  0  0  0  0999 V2000
  -12.8870  -16.5600   -3.0500 C   0  0  0  0  0  0  0  0  0  0  0  0
  -11.9560  -15.5780   -2.3070 C   0  0  0  0  0  0  0  0  0  0  0  0
  -12.1280  -14.2080   -2.9870 C   0  0  0  0  0  0  0  0  0  0  0  0
  -12.3090  -15.4030   -0.8160 C   0  0  0  0  0  0  0  0  0  0  0  0
  -12.2680  -16.7670   -0.0990 C   0  0  0  0  0  0  0  0  0  0  0  0
  -10.9820  -17.5100   -0.4430 C   0  0  0  0  0  0  0  0  0  0  0  0
  -10.6810  -18.6370    0.4310 C   0  0  0  0  0  0  0  0  0  0  0  0
  -10.7640  -19.9510   -0.0470 C   0  0  0  0  0  0  0  0  0  0  0  0
  -10.4160  -21.0240    0.7640 C   0  0  0  0  0  0  0  0  0  0  0  0
   -9.9890  -20.7950    2.0730 C   0  0  0  0  0  0  0  0  0  0  0  0
   -9.5230  -22.1270    3.0770 Cl  0  0  0  0  0  0  0  0  0  0  0  0
   -9.9310  -19.4930    2.5720 C   0  0  0  0  0  0  0  0  0  0  0  0
  -10.2800  -18.4230    1.7570 C   0  0  0  0  0  0  0  0  0  0  0  0
  -10.1970  -17.1860   -1.5030 C   0  0  0  0  0  0  0  0  0  0  0  0
   -8.9290  -17.9480   -1.8250 C   0  0  0  0  0  0  0  0  0  0  0  0
   -8.0710  -17.5440   -0.7190 N   0  3  0  0  0  0  0  0  0  0  0  0
   -7.3270  -18.7450   -0.2250 C   0  0  0  0  0  0  0  0  0  0  0  0
   -6.4880  -18.3290    1.0110 C   0  0  0  0  0  0  0  0  0  0  0  0
   -5.5570  -17.2590    0.5560 N   0  0  0  0  0  0  0  0  0  0  0  0
   -4.3460  -17.1210    1.2570 C   0  0  0  0  0  0  0  0  0  0  0  0
   -3.9510  -15.8910    1.8020 C   0  0  0  0  0  0  0  0  0  0  0  0
   -2.7340  -15.7840    2.4620 C   0  0  0  0  0  0  0  0  0  0  0  0
   -1.8820  -16.8960    2.5930 C   0  0  0  0  0  0  0  0  0  0  0  0
   -0.5760  -16.7920    3.2420 C   0  0  0  0  0  0  0  0  0  0  0  0
   -0.0210  -17.7360    3.7770 O   0  0  0  0  0  0  0  0  0  0  0  0
    0.0750  -15.6060    3.1750 N   0  0  0  0  0  0  0  0  0  0  0  0
    1.6920  -15.5240    3.4990 S   0  0  0  0  0  0  0  0  0  0  0  0
    1.9430  -15.9630    4.8210 O   0  0  0  0  0  0  0  0  0  0  0  0
    2.1000  -14.2060    3.1850 O   0  0  0  0  0  0  0  0  0  0  0  0
    2.4710  -16.6630    2.3230 C   0  0  0  0  0  0  0  0  0  0  0  0
    2.8380  -17.9530    2.7120 C   0  0  0  0  0  0  0  0  0  0  0  0
    3.4210  -18.8310    1.8110 C   0  0  0  0  0  0  0  0  0  0  0  0
    3.6540  -18.4290    0.4900 C   0  0  0  0  0  0  0  0  0  0  0  0
    4.2320  -19.3190   -0.4310 N   0  0  0  0  0  0  0  0  0  0  0  0
    5.1710  -20.3540   -0.0100 C   0  0  2  0  0  0  0  0  0  0  0  0
    6.2710  -20.3100   -1.0890 C   0  0  0  0  0  0  0  0  0  0  0  0
    7.5740  -20.8590   -0.4900 C   0  0  0  0  0  0  0  0  0  0  0  0
    8.4430  -21.0860   -1.6540 N   0  3  0  0  0  0  0  0  0  0  0  0
    9.2420  -19.8380   -1.9160 C   0  0  0  0  0  0  0  0  0  0  0  0
   10.1180  -20.0910   -3.1730 C   0  0  0  0  0  0  0  0  0  0  0  0
   10.9850  -21.2600   -2.8810 N   0  0  0  0  0  0  0  0  0  0  0  0
   12.1030  -21.0130   -2.1370 C   0  0  0  0  0  0  0  0  0  0  0  0
   12.1680  -20.0740   -1.3550 O   0  0  0  0  0  0  0  0  0  0  0  0
   13.0930  -21.9090   -2.3150 N   0  0  0  0  0  0  0  0  0  0  0  0
   14.4450  -21.6170   -1.8140 C   0  0  0  0  0  0  0  0  0  0  0  0
   15.2170  -22.9400   -1.8450 C   0  0  0  0  0  0  0  0  0  0  0  0
   16.5780  -22.6980   -1.5250 O   0  0  0  0  0  0  0  0  0  0  0  0
   17.3630  -23.8840   -1.5390 C   0  0  0  0  0  0  0  0  0  0  0  0
   18.8250  -23.5310   -1.2810 C   0  0  0  0  0  0  0  0  0  0  0  0
   19.6100  -24.7100   -1.4140 O   0  0  0  0  0  0  0  0  0  0  0  0
   21.0020  -24.4620   -1.2610 C   0  0  0  0  0  0  0  0  0  0  0  0
   21.7690  -25.7740   -1.4370 C   0  0  0  0  0  0  0  0  0  0  0  0
   23.1970  -25.4400   -1.3010 N   0  0  0  0  0  0  0  0  0  0  0  0
   24.1880  -26.4050   -1.4610 C   0  0  0  0  0  0  0  0  0  0  0  0
   24.0250  -27.5100   -2.3130 C   0  0  0  0  0  0  0  0  0  0  0  0
   25.0550  -28.4450   -2.4510 C   0  0  0  0  0  0  0  0  0  0  0  0
   26.2550  -28.2940   -1.7490 C   0  0  0  0  0  0  0  0  0  0  0  0
   26.4030  -27.1910   -0.9090 C   0  0  0  0  0  0  0  0  0  0  0  0
   25.3920  -26.2620   -0.7630 C   0  0  0  0  0  0  0  0  0  0  0  0
   25.8360  -25.2670    0.1730 C   0  0  0  0  0  0  0  0  0  0  0  0
   25.2380  -24.2950    0.6260 O   0  0  0  0  0  0  0  0  0  0  0  0
   27.1240  -25.6000    0.5710 N   0  0  0  0  0  0  0  0  0  0  0  0
   28.0290  -24.8050    1.4140 C   0  0  2  0  0  0  0  0  0  0  0  0
   27.4480  -24.7800    2.8520 C   0  0  0  0  0  0  0  0  0  0  0  0
   28.3620  -23.8560    3.6910 C   0  0  0  0  0  0  0  0  0  0  0  0
   28.3180  -22.4690    3.0770 C   0  0  0  0  0  0  0  0  0  0  0  0
   28.3380  -21.4550    3.7270 O   0  0  0  0  0  0  0  0  0  0  0  0
   28.2750  -22.3250    1.7280 N   0  0  0  0  0  0  0  0  0  0  0  0
   28.1470  -23.3720    0.8670 C   0  0  0  0  0  0  0  0  0  0  0  0
   28.1820  -23.0900   -0.3100 O   0  0  0  0  0  0  0  0  0  0  0  0
   27.4960  -26.7690   -0.0660 C   0  0  0  0  0  0  0  0  0  0  0  0
   28.5820  -27.2950    0.1260 O   0  0  0  0  0  0  0  0  0  0  0  0
   10.2440  -22.5020   -2.5570 C   0  0  0  0  0  0  0  0  0  0  0  0
    9.3950  -22.1860   -1.2980 C   0  0  0  0  0  0  0  0  0  0  0  0
    4.3590  -21.6680    0.0240 C   0  0  0  0  0  0  0  0  0  0  0  0
    5.3850  -22.9420    0.8530 S   0  0  0  0  0  0  0  0  0  0  0  0
    6.2730  -23.8930   -0.3220 C   0  0  0  0  0  0  0  0  0  0  0  0
    7.2920  -24.7270    0.1520 C   0  0  0  0  0  0  0  0  0  0  0  0
    8.0620  -25.4740   -0.7330 C   0  0  0  0  0  0  0  0  0  0  0  0
    7.8210  -25.4010   -2.1020 C   0  0  0  0  0  0  0  0  0  0  0  0
    6.7990  -24.5870   -2.5820 C   0  0  0  0  0  0  0  0  0  0  0  0
    6.0220  -23.8410   -1.7010 C   0  0  0  0  0  0  0  0  0  0  0  0
    3.2890  -17.1380    0.0720 C   0  0  0  0  0  0  0  0  0  0  0  0
    3.5320  -16.5810   -1.6310 S   0  0  0  0  0  0  0  0  0  0  0  0
    4.6730  -17.2490   -2.1840 O   0  0  0  0  0  0  0  0  0  0  0  0
    3.6030  -15.1600   -1.6250 O   0  0  0  0  0  0  0  0  0  0  0  0
    1.9420  -17.1570   -2.4910 C   0  0  0  0  0  0  0  0  0  0  0  0
    0.8070  -16.7680   -1.8520 F   0  0  0  0  0  0  0  0  0  0  0  0
    1.7950  -16.7110   -3.7590 F   0  0  0  0  0  0  0  0  0  0  0  0
    1.8270  -18.5030   -2.5870 F   0  0  0  0  0  0  0  0  0  0  0  0
    2.7240  -16.2650    1.0070 C   0  0  0  0  0  0  0  0  0  0  0  0
   -2.3040  -18.1260    2.0630 C   0  0  0  0  0  0  0  0  0  0  0  0
   -3.5150  -18.2390    1.3960 C   0  0  0  0  0  0  0  0  0  0  0  0
   -6.2320  -16.0530    0.0050 C   0  0  0  0  0  0  0  0  0  0  0  0
   -7.0880  -16.5240   -1.2000 C   0  0  0  0  0  0  0  0  0  0  0  0
  -10.4780  -16.0120   -2.4380 C   0  0  0  0  0  0  0  0  0  0  0  0
  -13.9210  -16.2320   -2.9420 H   0  0  0  0  0  0  0  0  0  0  0  0
  -12.7760  -17.5580   -2.6250 H   0  0  0  0  0  0  0  0  0  0  0  0
  -12.6210  -16.5830   -4.1070 H   0  0  0  0  0  0  0  0  0  0  0  0
  -13.1670  -13.8880   -2.9030 H   0  0  0  0  0  0  0  0  0  0  0  0
  -11.8570  -14.2880   -4.0400 H   0  0  0  0  0  0  0  0  0  0  0  0
  -11.4820  -13.4770   -2.5000 H   0  0  0  0  0  0  0  0  0  0  0  0
  -11.5890  -14.7300   -0.3510 H   0  0  0  0  0  0  0  0  0  0  0  0
  -13.3100  -14.9800   -0.7300 H   0  0  0  0  0  0  0  0  0  0  0  0
  -13.1230  -17.3640   -0.4150 H   0  0  0  0  0  0  0  0  0  0  0  0
  -12.3140  -16.6080    0.9780 H   0  0  0  0  0  0  0  0  0  0  0  0
  -11.1020  -20.1320   -1.0570 H   0  0  0  0  0  0  0  0  0  0  0  0
  -10.4760  -22.0330    0.3830 H   0  0  0  0  0  0  0  0  0  0  0  0
   -9.6150  -19.3170    3.5900 H   0  0  0  0  0  0  0  0  0  0  0  0
  -10.2420  -17.4170    2.1490 H   0  0  0  0  0  0  0  0  0  0  0  0
   -8.5130  -17.6440   -2.7860 H   0  0  0  0  0  0  0  0  0  0  0  0
   -9.0990  -19.0250   -1.8270 H   0  0  0  0  0  0  0  0  0  0  0  0
   -8.6300  -17.1500    0.0240 H   0  0  0  0  0  0  0  0  0  0  0  0
   -8.0340  -19.5260    0.0560 H   0  0  0  0  0  0  0  0  0  0  0  0
   -6.6670  -19.1170   -1.0090 H   0  0  0  0  0  0  0  0  0  0  0  0
   -5.9240  -19.1830    1.3870 H   0  0  0  0  0  0  0  0  0  0  0  0
   -7.1400  -17.9500    1.7980 H   0  0  0  0  0  0  0  0  0  0  0  0
   -4.5930  -15.0270    1.7090 H   0  0  0  0  0  0  0  0  0  0  0  0
   -2.4370  -14.8340    2.8810 H   0  0  0  0  0  0  0  0  0  0  0  0
   -0.4310  -14.7680    2.9260 H   0  0  0  0  0  0  0  0  0  0  0  0
    2.6650  -18.2710    3.7290 H   0  0  0  0  0  0  0  0  0  0  0  0
    3.6960  -19.8260    2.1280 H   0  0  0  0  0  0  0  0  0  0  0  0
    3.9920  -19.2410   -1.4090 H   0  0  0  0  0  0  0  0  0  0  0  0
    5.6330  -20.2400    0.9710 H   0  0  0  0  0  0  0  0  0  0  0  0
    5.9730  -20.9210   -1.9410 H   0  0  0  0  0  0  0  0  0  0  0  0
    6.4230  -19.2810   -1.4160 H   0  0  0  0  0  0  0  0  0  0  0  0
    7.3910  -21.7920    0.0430 H   0  0  0  0  0  0  0  0  0  0  0  0
    8.0210  -20.1340    0.1900 H   0  0  0  0  0  0  0  0  0  0  0  0
    7.8950  -21.3230   -2.4680 H   0  0  0  0  0  0  0  0  0  0  0  0
    8.5700  -18.9980   -2.0950 H   0  0  0  0  0  0  0  0  0  0  0  0
    9.8780  -19.6180   -1.0590 H   0  0  0  0  0  0  0  0  0  0  0  0
   10.7320  -19.2150   -3.3820 H   0  0  0  0  0  0  0  0  0  0  0  0
    9.4830  -20.3030   -4.0330 H   0  0  0  0  0  0  0  0  0  0  0  0
   12.9070  -22.7800   -2.7920 H   0  0  0  0  0  0  0  0  0  0  0  0
   14.9330  -20.8820   -2.4540 H   0  0  0  0  0  0  0  0  0  0  0  0
   14.3940  -21.2350   -0.7940 H   0  0  0  0  0  0  0  0  0  0  0  0
   15.1500  -23.3770   -2.8410 H   0  0  0  0  0  0  0  0  0  0  0  0
   14.7890  -23.6280   -1.1160 H   0  0  0  0  0  0  0  0  0  0  0  0
   17.0110  -24.5620   -0.7620 H   0  0  0  0  0  0  0  0  0  0  0  0
   17.2720  -24.3680   -2.5110 H   0  0  0  0  0  0  0  0  0  0  0  0
   18.9330  -23.1300   -0.2730 H   0  0  0  0  0  0  0  0  0  0  0  0
   19.1560  -22.7870   -2.0050 H   0  0  0  0  0  0  0  0  0  0  0  0
   21.3290  -23.7450   -2.0130 H   0  0  0  0  0  0  0  0  0  0  0  0
   21.1930  -24.0580   -0.2670 H   0  0  0  0  0  0  0  0  0  0  0  0
   21.5730  -26.1970   -2.4220 H   0  0  0  0  0  0  0  0  0  0  0  0
   21.4740  -26.4890   -0.6690 H   0  0  0  0  0  0  0  0  0  0  0  0
   23.4630  -24.4900   -1.0870 H   0  0  0  0  0  0  0  0  0  0  0  0
   23.1030  -27.6370   -2.8620 H   0  0  0  0  0  0  0  0  0  0  0  0
   24.9230  -29.2930   -3.1070 H   0  0  0  0  0  0  0  0  0  0  0  0
   27.0510  -29.0170   -1.8550 H   0  0  0  0  0  0  0  0  0  0  0  0
   29.0250  -25.2490    1.4160 H   0  0  0  0  0  0  0  0  0  0  0  0
   26.4310  -24.3890    2.8380 H   0  0  0  0  0  0  0  0  0  0  0  0
   27.4450  -25.7860    3.2720 H   0  0  0  0  0  0  0  0  0  0  0  0
   29.3840  -24.2350    3.6760 H   0  0  0  0  0  0  0  0  0  0  0  0
   28.0040  -23.8170    4.7200 H   0  0  0  0  0  0  0  0  0  0  0  0
   28.3410  -21.3940    1.3430 H   0  0  0  0  0  0  0  0  0  0  0  0
    9.5970  -22.7830   -3.3880 H   0  0  0  0  0  0  0  0  0  0  0  0
   10.9410  -23.3140   -2.3480 H   0  0  0  0  0  0  0  0  0  0  0  0
   10.0440  -21.8660   -0.4830 H   0  0  0  0  0  0  0  0  0  0  0  0
    8.8400  -23.0730   -0.9930 H   0  0  0  0  0  0  0  0  0  0  0  0
    4.1240  -21.9850   -0.9920 H   0  0  0  0  0  0  0  0  0  0  0  0
    3.4340  -21.5180    0.5800 H   0  0  0  0  0  0  0  0  0  0  0  0
    7.4820  -24.7910    1.2130 H   0  0  0  0  0  0  0  0  0  0  0  0
    8.8480  -26.1120   -0.3570 H   0  0  0  0  0  0  0  0  0  0  0  0
    8.4250  -25.9740   -2.7900 H   0  0  0  0  0  0  0  0  0  0  0  0
    6.6080  -24.5340   -3.6440 H   0  0  0  0  0  0  0  0  0  0  0  0
    5.2240  -23.2200   -2.0800 H   0  0  0  0  0  0  0  0  0  0  0  0
    2.4770  -15.2580    0.7050 H   0  0  0  0  0  0  0  0  0  0  0  0
   -1.6760  -18.9970    2.1760 H   0  0  0  0  0  0  0  0  0  0  0  0
   -3.8170  -19.1900    0.9840 H   0  0  0  0  0  0  0  0  0  0  0  0
   -6.8710  -15.6020    0.7640 H   0  0  0  0  0  0  0  0  0  0  0  0
   -5.4900  -15.3260   -0.3240 H   0  0  0  0  0  0  0  0  0  0  0  0
   -6.4420  -16.9660   -1.9590 H   0  0  0  0  0  0  0  0  0  0  0  0
   -7.6200  -15.6740   -1.6270 H   0  0  0  0  0  0  0  0  0  0  0  0
   -9.8310  -15.1760   -2.1730 H   0  0  0  0  0  0  0  0  0  0  0  0
  -10.2790  -16.3130   -3.4670 H   0  0  0  0  0  0  0  0  0  0  0  0
  1  2  1  0  0  0  0
  1 97  1  0  0  0  0
  1 98  1  0  0  0  0
  1 99  1  0  0  0  0
  2  3  1  0  0  0  0
  2  4  1  0  0  0  0
  2 96  1  0  0  0  0
  3100  1  0  0  0  0
  3101  1  0  0  0  0
  3102  1  0  0  0  0
  4  5  1  0  0  0  0
  4103  1  0  0  0  0
  4104  1  0  0  0  0
  5  6  1  0  0  0  0
  5105  1  0  0  0  0
  5106  1  0  0  0  0
  6  7  1  0  0  0  0
  6 14  2  0  0  0  0
  7  8  1  0  0  0  0
  7 13  2  0  0  0  0
  8  9  2  0  0  0  0
  8107  1  0  0  0  0
  9 10  1  0  0  0  0
  9108  1  0  0  0  0
 10 11  1  0  0  0  0
 10 12  2  0  0  0  0
 12 13  1  0  0  0  0
 12109  1  0  0  0  0
 13110  1  0  0  0  0
 14 15  1  0  0  0  0
 14 96  1  0  0  0  0
 15 16  1  0  0  0  0
 15111  1  0  0  0  0
 15112  1  0  0  0  0
 16 17  1  0  0  0  0
 16 95  1  0  0  0  0
 16113  1  0  0  0  0
 17 18  1  0  0  0  0
 17114  1  0  0  0  0
 17115  1  0  0  0  0
 18 19  1  0  0  0  0
 18116  1  0  0  0  0
 18117  1  0  0  0  0
 19 20  1  0  0  0  0
 19 94  1  0  0  0  0
 20 21  1  0  0  0  0
 20 93  2  0  0  0  0
 21 22  2  0  0  0  0
 21118  1  0  0  0  0
 22 23  1  0  0  0  0
 22119  1  0  0  0  0
 23 24  1  0  0  0  0
 23 92  2  0  0  0  0
 24 25  2  0  0  0  0
 24 26  1  0  0  0  0
 26 27  1  0  0  0  0
 26120  1  0  0  0  0
 27 28  2  0  0  0  0
 27 29  2  0  0  0  0
 27 30  1  0  0  0  0
 30 31  1  0  0  0  0
 30 91  2  0  0  0  0
 31 32  2  0  0  0  0
 31121  1  0  0  0  0
 32 33  1  0  0  0  0
 32122  1  0  0  0  0
 33 34  1  0  0  0  0
 33 83  2  0  0  0  0
 34 35  1  0  0  0  0
 34123  1  0  0  0  0
 35 36  1  0  0  0  0
 35 75  1  0  0  0  0
 35124  1  0  0  0  0
 36 37  1  0  0  0  0
 36125  1  0  0  0  0
 36126  1  0  0  0  0
 37 38  1  0  0  0  0
 37127  1  0  0  0  0
 37128  1  0  0  0  0
 38 39  1  0  0  0  0
 38 74  1  0  0  0  0
 38129  1  0  0  0  0
 39 40  1  0  0  0  0
 39130  1  0  0  0  0
 39131  1  0  0  0  0
 40 41  1  0  0  0  0
 40132  1  0  0  0  0
 40133  1  0  0  0  0
 41 42  1  0  0  0  0
 41 73  1  0  0  0  0
 42 43  2  0  0  0  0
 42 44  1  0  0  0  0
 44 45  1  0  0  0  0
 44134  1  0  0  0  0
 45 46  1  0  0  0  0
 45135  1  0  0  0  0
 45136  1  0  0  0  0
 46 47  1  0  0  0  0
 46137  1  0  0  0  0
 46138  1  0  0  0  0
 47 48  1  0  0  0  0
 48 49  1  0  0  0  0
 48139  1  0  0  0  0
 48140  1  0  0  0  0
 49 50  1  0  0  0  0
 49141  1  0  0  0  0
 49142  1  0  0  0  0
 50 51  1  0  0  0  0
 51 52  1  0  0  0  0
 51143  1  0  0  0  0
 51144  1  0  0  0  0
 52 53  1  0  0  0  0
 52145  1  0  0  0  0
 52146  1  0  0  0  0
 53 54  1  0  0  0  0
 53147  1  0  0  0  0
 54 55  1  0  0  0  0
 54 59  2  0  0  0  0
 55 56  2  0  0  0  0
 55148  1  0  0  0  0
 56 57  1  0  0  0  0
 56149  1  0  0  0  0
 57 58  2  0  0  0  0
 57150  1  0  0  0  0
 58 59  1  0  0  0  0
 58 71  1  0  0  0  0
 59 60  1  0  0  0  0
 60 61  2  0  0  0  0
 60 62  1  0  0  0  0
 62 63  1  0  0  0  0
 62 71  1  0  0  0  0
 63 64  1  0  0  0  0
 63 69  1  0  0  0  0
 63151  1  0  0  0  0
 64 65  1  0  0  0  0
 64152  1  0  0  0  0
 64153  1  0  0  0  0
 65 66  1  0  0  0  0
 65154  1  0  0  0  0
 65155  1  0  0  0  0
 66 67  2  0  0  0  0
 66 68  1  0  0  0  0
 68 69  1  0  0  0  0
 68156  1  0  0  0  0
 69 70  2  0  0  0  0
 71 72  2  0  0  0  0
 73 74  1  0  0  0  0
 73157  1  0  0  0  0
 73158  1  0  0  0  0
 74159  1  0  0  0  0
 74160  1  0  0  0  0
 75 76  1  0  0  0  0
 75161  1  0  0  0  0
 75162  1  0  0  0  0
 76 77  1  0  0  0  0
 77 78  1  0  0  0  0
 77 82  2  0  0  0  0
 78 79  2  0  0  0  0
 78163  1  0  0  0  0
 79 80  1  0  0  0  0
 79164  1  0  0  0  0
 80 81  2  0  0  0  0
 80165  1  0  0  0  0
 81 82  1  0  0  0  0
 81166  1  0  0  0  0
 82167  1  0  0  0  0
 83 84  1  0  0  0  0
 83 91  1  0  0  0  0
 84 85  2  0  0  0  0
 84 86  2  0  0  0  0
 84 87  1  0  0  0  0
 87 88  1  0  0  0  0
 87 89  1  0  0  0  0
 87 90  1  0  0  0  0
 91168  1  0  0  0  0
 92 93  1  0  0  0  0
 92169  1  0  0  0  0
 93170  1  0  0  0  0
 94 95  1  0  0  0  0
 94171  1  0  0  0  0
 94172  1  0  0  0  0
 95173  1  0  0  0  0
 95174  1  0  0  0  0
 96175  1  0  0  0  0
 96176  1  0  0  0  0
M  CHG  1  16   1
M  CHG  1  38   1
M  END
>  <Compound ID>
653

>  <Uniprot>
Q07817

>  <Target>
BCL-xL

>  <E3 ligase>
CRBN

>  <IC50 (nM, Cellular activities)>
118

>  <Assay (Cellular activities, IC50)>
Inhibit viability of MOLT-4 cells

>  <Article DOI>
10.1016/j.ejmech.2020.112186

>  <Molecular Weight>
1404.067

>  <Exact Mass>
1402.4603

>  <XLogP3>
9.1899996

>  <Heavy Atom Count>
96

>  <Ring Count>
10

>  <Hydrogen Bond Acceptor Count>
18

>  <Hydrogen Bond Donor Count>
5

>  <Rotatable Bond Count>
27

>  <Topological Polar Surface Area>
265.51001

>  <Molecular Formula>
C67H78ClF3N10O12S3

>  <InChI>
InChI=1S/C67H78ClF3N10O12S3/c1-66(2)25-23-53(45-11-15-48(68)16-12-45)47(42-66)43-78-31-33-79(34-32-78)50-17-13-46(14-18-50)61(83)76-96(90,91)52-19-20-55(58(41-52)95(88,89)67(69,70)71)74-49(44-94-51-7-4-3-5-8-51)24-28-77-29-35-80(36-30-77)65(87)73-27-38-93-40-39-92-37-26-72-56-10-6-9-54-60(56)64(86)81(63(54)85)57-21-22-59(82)75-62(57)84/h3-20,41,49,57,72,74H,21-40,42-44H2,1-2H3,(H,73,87)(H,76,83)(H,75,82,84)/t49-,57?/m1/s1

>  <InChI Key>
HUJOFFBNGNRZLG-LKVFYHIZSA-N

$$$$
654
  MOE2018           3D

176185  0  0  1  0  0  0  0  0999 V2000
  -11.2740  -15.0380    1.4810 C   0  0  0  0  0  0  0  0  0  0  0  0
  -12.2090  -15.0880    0.2540 C   0  0  0  0  0  0  0  0  0  0  0  0
  -12.7880  -13.6730    0.0810 C   0  0  0  0  0  0  0  0  0  0  0  0
  -13.3970  -16.0570    0.4160 C   0  0  0  0  0  0  0  0  0  0  0  0
  -12.8850  -17.4840    0.7020 C   0  0  0  0  0  0  0  0  0  0  0  0
  -11.7550  -17.8600   -0.2530 C   0  0  0  0  0  0  0  0  0  0  0  0
  -11.4400  -19.2840   -0.2740 C   0  0  0  0  0  0  0  0  0  0  0  0
  -11.5890  -20.0320   -1.4490 C   0  0  0  0  0  0  0  0  0  0  0  0
  -11.2590  -21.3810   -1.4800 C   0  0  0  0  0  0  0  0  0  0  0  0
  -10.7850  -22.0060   -0.3250 C   0  0  0  0  0  0  0  0  0  0  0  0
  -10.3530  -23.6830   -0.3640 Cl  0  0  0  0  0  0  0  0  0  0  0  0
  -10.6590  -21.2800    0.8600 C   0  0  0  0  0  0  0  0  0  0  0  0
  -10.9890  -19.9310    0.8850 C   0  0  0  0  0  0  0  0  0  0  0  0
  -11.0780  -16.9470   -0.9950 C   0  0  0  0  0  0  0  0  0  0  0  0
   -9.9140  -17.3280   -1.8820 C   0  0  0  0  0  0  0  0  0  0  0  0
   -8.7950  -17.0370   -0.9940 N   0  3  0  0  0  0  0  0  0  0  0  0
   -8.1920  -18.3340   -0.5480 C   0  0  0  0  0  0  0  0  0  0  0  0
   -7.0650  -18.0270    0.4730 C   0  0  0  0  0  0  0  0  0  0  0  0
   -6.0680  -17.1560   -0.2140 N   0  0  0  0  0  0  0  0  0  0  0  0
   -4.7800  -17.1440    0.3520 C   0  0  0  0  0  0  0  0  0  0  0  0
   -4.1930  -15.9570    0.8130 C   0  0  0  0  0  0  0  0  0  0  0  0
   -2.9220  -15.9840    1.3710 C   0  0  0  0  0  0  0  0  0  0  0  0
   -2.2020  -17.1890    1.4780 C   0  0  0  0  0  0  0  0  0  0  0  0
   -0.8610  -17.2350    2.0650 C   0  0  0  0  0  0  0  0  0  0  0  0
   -0.3600  -18.2540    2.5080 O   0  0  0  0  0  0  0  0  0  0  0  0
   -0.1230  -16.0990    2.0770 N   0  0  0  0  0  0  0  0  0  0  0  0
    1.3910  -16.0560    2.7370 S   0  0  0  0  0  0  0  0  0  0  0  0
    1.3530  -16.5840    4.0490 O   0  0  0  0  0  0  0  0  0  0  0  0
    1.8450  -14.7210    2.6130 O   0  0  0  0  0  0  0  0  0  0  0  0
    2.4290  -17.1130    1.6920 C   0  0  0  0  0  0  0  0  0  0  0  0
    2.6300  -18.4570    2.0150 C   0  0  0  0  0  0  0  0  0  0  0  0
    3.4540  -19.2620    1.2430 C   0  0  0  0  0  0  0  0  0  0  0  0
    4.1160  -18.7260    0.1330 C   0  0  0  0  0  0  0  0  0  0  0  0
    4.9800  -19.5360   -0.6210 N   0  0  0  0  0  0  0  0  0  0  0  0
    5.8150  -20.5260    0.0500 C   0  0  2  0  0  0  0  0  0  0  0  0
    7.2230  -20.2470   -0.5090 C   0  0  0  0  0  0  0  0  0  0  0  0
    8.2290  -21.1540    0.2120 C   0  0  0  0  0  0  0  0  0  0  0  0
    9.5500  -20.7490   -0.2950 N   0  3  0  0  0  0  0  0  0  0  0  0
   10.0820  -19.6470    0.5720 C   0  0  0  0  0  0  0  0  0  0  0  0
   11.4340  -19.1880   -0.0190 C   0  0  0  0  0  0  0  0  0  0  0  0
   12.3550  -20.3570   -0.0110 N   0  0  0  0  0  0  0  0  0  0  0  0
   13.6890  -20.0190   -0.2400 C   0  0  0  0  0  0  0  0  0  0  0  0
   14.2040  -18.5180   -0.7910 S   0  0  0  0  0  0  0  0  0  0  0  0
   14.5360  -21.0530    0.0740 N   0  0  0  0  0  0  0  0  0  0  0  0
   15.9200  -21.0640   -0.4310 C   0  0  0  0  0  0  0  0  0  0  0  0
   16.6880  -22.0870    0.4110 C   0  0  0  0  0  0  0  0  0  0  0  0
   17.9870  -22.2520   -0.1350 O   0  0  0  0  0  0  0  0  0  0  0  0
   18.7700  -23.1960    0.5840 C   0  0  0  0  0  0  0  0  0  0  0  0
   20.1300  -23.3420   -0.0940 C   0  0  0  0  0  0  0  0  0  0  0  0
   20.8280  -24.4260    0.5030 O   0  0  0  0  0  0  0  0  0  0  0  0
   22.0960  -24.6570   -0.0970 C   0  0  0  0  0  0  0  0  0  0  0  0
   22.7500  -25.8690    0.5690 C   0  0  0  0  0  0  0  0  0  0  0  0
   24.0540  -26.0510   -0.0900 N   0  0  0  0  0  0  0  0  0  0  0  0
   24.8670  -27.1370    0.2250 C   0  0  0  0  0  0  0  0  0  0  0  0
   24.3360  -28.3920    0.5650 C   0  0  0  0  0  0  0  0  0  0  0  0
   25.1910  -29.4560    0.8640 C   0  0  0  0  0  0  0  0  0  0  0  0
   26.5790  -29.2890    0.8260 C   0  0  0  0  0  0  0  0  0  0  0  0
   27.0920  -28.0380    0.4840 C   0  0  0  0  0  0  0  0  0  0  0  0
   26.2570  -26.9790    0.1880 C   0  0  0  0  0  0  0  0  0  0  0  0
   27.0770  -25.8350   -0.1030 C   0  0  0  0  0  0  0  0  0  0  0  0
   26.7490  -24.6830   -0.3660 O   0  0  0  0  0  0  0  0  0  0  0  0
   28.4060  -26.2250    0.0060 N   0  0  0  0  0  0  0  0  0  0  0  0
   29.5990  -25.4330   -0.3250 C   0  0  2  0  0  0  0  0  0  0  0  0
   29.7110  -24.2780    0.7030 C   0  0  0  0  0  0  0  0  0  0  0  0
   30.9200  -23.4120    0.2770 C   0  0  0  0  0  0  0  0  0  0  0  0
   30.6400  -22.8630   -1.1100 C   0  0  0  0  0  0  0  0  0  0  0  0
   30.9700  -21.7620   -1.4660 O   0  0  0  0  0  0  0  0  0  0  0  0
   30.0040  -23.6340   -2.0290 N   0  0  0  0  0  0  0  0  0  0  0  0
   29.4840  -24.8600   -1.7480 C   0  0  0  0  0  0  0  0  0  0  0  0
   28.9930  -25.4490   -2.6850 O   0  0  0  0  0  0  0  0  0  0  0  0
   28.4480  -27.5590    0.3660 C   0  0  0  0  0  0  0  0  0  0  0  0
   29.5020  -28.1480    0.5490 O   0  0  0  0  0  0  0  0  0  0  0  0
   11.8420  -21.5370   -0.7600 C   0  0  0  0  0  0  0  0  0  0  0  0
   10.4680  -21.9190   -0.1510 C   0  0  0  0  0  0  0  0  0  0  0  0
    5.2290  -21.9040   -0.3090 C   0  0  0  0  0  0  0  0  0  0  0  0
    5.8840  -23.0740    0.9390 S   0  0  0  0  0  0  0  0  0  0  0  0
    5.8410  -24.6590    0.1980 C   0  0  0  0  0  0  0  0  0  0  0  0
    6.6020  -25.6830    0.7730 C   0  0  0  0  0  0  0  0  0  0  0  0
    6.6250  -26.9480    0.2000 C   0  0  0  0  0  0  0  0  0  0  0  0
    5.8830  -27.2100   -0.9480 C   0  0  0  0  0  0  0  0  0  0  0  0
    5.1080  -26.2030   -1.5150 C   0  0  0  0  0  0  0  0  0  0  0  0
    5.0780  -24.9350   -0.9460 C   0  0  0  0  0  0  0  0  0  0  0  0
    3.9110  -17.3840   -0.2320 C   0  0  0  0  0  0  0  0  0  0  0  0
    4.7080  -16.6620   -1.6850 S   0  0  0  0  0  0  0  0  0  0  0  0
    5.9690  -17.3090   -1.8950 O   0  0  0  0  0  0  0  0  0  0  0  0
    4.7720  -15.2520   -1.5000 O   0  0  0  0  0  0  0  0  0  0  0  0
    3.5010  -17.0890   -3.0850 C   0  0  0  0  0  0  0  0  0  0  0  0
    2.2200  -16.7200   -2.8300 F   0  0  0  0  0  0  0  0  0  0  0  0
    3.7940  -16.5160   -4.2750 F   0  0  0  0  0  0  0  0  0  0  0  0
    3.4210  -18.4130   -3.3550 F   0  0  0  0  0  0  0  0  0  0  0  0
    3.0850  -16.5910    0.5720 C   0  0  0  0  0  0  0  0  0  0  0  0
   -2.8060  -18.3690    1.0110 C   0  0  0  0  0  0  0  0  0  0  0  0
   -4.0760  -18.3490    0.4500 C   0  0  0  0  0  0  0  0  0  0  0  0
   -6.6210  -15.8890   -0.7600 C   0  0  0  0  0  0  0  0  0  0  0  0
   -7.7550  -16.2710   -1.7460 C   0  0  0  0  0  0  0  0  0  0  0  0
  -11.4300  -15.4610   -1.0270 C   0  0  0  0  0  0  0  0  0  0  0  0
  -11.8510  -14.7730    2.3670 H   0  0  0  0  0  0  0  0  0  0  0  0
  -10.4980  -14.2910    1.3160 H   0  0  0  0  0  0  0  0  0  0  0  0
  -10.8130  -16.0150    1.6260 H   0  0  0  0  0  0  0  0  0  0  0  0
  -13.3410  -13.3950    0.9780 H   0  0  0  0  0  0  0  0  0  0  0  0
  -13.4580  -13.6570   -0.7790 H   0  0  0  0  0  0  0  0  0  0  0  0
  -11.9750  -12.9650   -0.0790 H   0  0  0  0  0  0  0  0  0  0  0  0
  -14.0220  -15.7260    1.2460 H   0  0  0  0  0  0  0  0  0  0  0  0
  -13.9850  -16.0630   -0.5020 H   0  0  0  0  0  0  0  0  0  0  0  0
  -13.7070  -18.1890    0.5780 H   0  0  0  0  0  0  0  0  0  0  0  0
  -12.5170  -17.5320    1.7270 H   0  0  0  0  0  0  0  0  0  0  0  0
  -11.9650  -19.5540   -2.3420 H   0  0  0  0  0  0  0  0  0  0  0  0
  -11.3690  -21.9450   -2.3950 H   0  0  0  0  0  0  0  0  0  0  0  0
  -10.3050  -21.7670    1.7570 H   0  0  0  0  0  0  0  0  0  0  0  0
  -10.8970  -19.3750    1.8060 H   0  0  0  0  0  0  0  0  0  0  0  0
   -9.8800  -16.7180   -2.7850 H   0  0  0  0  0  0  0  0  0  0  0  0
   -9.9460  -18.3820   -2.1570 H   0  0  0  0  0  0  0  0  0  0  0  0
   -9.1170  -16.4990   -0.2020 H   0  0  0  0  0  0  0  0  0  0  0  0
   -8.9560  -18.9520   -0.0770 H   0  0  0  0  0  0  0  0  0  0  0  0
   -7.7770  -18.8610   -1.4070 H   0  0  0  0  0  0  0  0  0  0  0  0
   -6.5910  -18.9540    0.7950 H   0  0  0  0  0  0  0  0  0  0  0  0
   -7.4770  -17.5100    1.3390 H   0  0  0  0  0  0  0  0  0  0  0  0
   -4.7290  -15.0230    0.7340 H   0  0  0  0  0  0  0  0  0  0  0  0
   -2.4790  -15.0660    1.7290 H   0  0  0  0  0  0  0  0  0  0  0  0
   -0.5080  -15.2570    1.6720 H   0  0  0  0  0  0  0  0  0  0  0  0
    2.1360  -18.8760    2.8790 H   0  0  0  0  0  0  0  0  0  0  0  0
    3.5850  -20.3030    1.4990 H   0  0  0  0  0  0  0  0  0  0  0  0
    5.0230  -19.4340   -1.6250 H   0  0  0  0  0  0  0  0  0  0  0  0
    5.8550  -20.4900    1.1390 H   0  0  0  0  0  0  0  0  0  0  0  0
    7.2410  -20.4570   -1.5780 H   0  0  0  0  0  0  0  0  0  0  0  0
    7.4840  -19.2020   -0.3400 H   0  0  0  0  0  0  0  0  0  0  0  0
    8.0350  -22.2010   -0.0220 H   0  0  0  0  0  0  0  0  0  0  0  0
    8.1720  -21.0060    1.2900 H   0  0  0  0  0  0  0  0  0  0  0  0
    9.4830  -20.4440   -1.2560 H   0  0  0  0  0  0  0  0  0  0  0  0
    9.3800  -18.8130    0.5830 H   0  0  0  0  0  0  0  0  0  0  0  0
   10.2270  -20.0130    1.5880 H   0  0  0  0  0  0  0  0  0  0  0  0
   11.8500  -18.3840    0.5880 H   0  0  0  0  0  0  0  0  0  0  0  0
   11.2910  -18.8350   -1.0400 H   0  0  0  0  0  0  0  0  0  0  0  0
   14.2080  -21.8110    0.6550 H   0  0  0  0  0  0  0  0  0  0  0  0
   15.9340  -21.3550   -1.4810 H   0  0  0  0  0  0  0  0  0  0  0  0
   16.3670  -20.0760   -0.3220 H   0  0  0  0  0  0  0  0  0  0  0  0
   16.1620  -23.0410    0.3970 H   0  0  0  0  0  0  0  0  0  0  0  0
   16.7660  -21.7300    1.4380 H   0  0  0  0  0  0  0  0  0  0  0  0
   18.9090  -22.8500    1.6080 H   0  0  0  0  0  0  0  0  0  0  0  0
   18.2620  -24.1600    0.5920 H   0  0  0  0  0  0  0  0  0  0  0  0
   20.7030  -22.4230    0.0330 H   0  0  0  0  0  0  0  0  0  0  0  0
   19.9900  -23.5380   -1.1570 H   0  0  0  0  0  0  0  0  0  0  0  0
   21.9660  -24.8510   -1.1620 H   0  0  0  0  0  0  0  0  0  0  0  0
   22.7290  -23.7800    0.0380 H   0  0  0  0  0  0  0  0  0  0  0  0
   22.1310  -26.7550    0.4310 H   0  0  0  0  0  0  0  0  0  0  0  0
   22.8880  -25.6850    1.6340 H   0  0  0  0  0  0  0  0  0  0  0  0
   24.3630  -25.3800   -0.7790 H   0  0  0  0  0  0  0  0  0  0  0  0
   23.2660  -28.5350    0.5950 H   0  0  0  0  0  0  0  0  0  0  0  0
   24.7760  -30.4180    1.1270 H   0  0  0  0  0  0  0  0  0  0  0  0
   27.2400  -30.1120    1.0570 H   0  0  0  0  0  0  0  0  0  0  0  0
   30.4870  -26.0640   -0.2850 H   0  0  0  0  0  0  0  0  0  0  0  0
   28.8000  -23.6800    0.6950 H   0  0  0  0  0  0  0  0  0  0  0  0
   29.8720  -24.6810    1.7030 H   0  0  0  0  0  0  0  0  0  0  0  0
   31.8230  -24.0220    0.2580 H   0  0  0  0  0  0  0  0  0  0  0  0
   31.0520  -22.5900    0.9800 H   0  0  0  0  0  0  0  0  0  0  0  0
   29.9120  -23.2790   -2.9700 H   0  0  0  0  0  0  0  0  0  0  0  0
   11.7240  -21.2850   -1.8140 H   0  0  0  0  0  0  0  0  0  0  0  0
   12.5370  -22.3710   -0.6610 H   0  0  0  0  0  0  0  0  0  0  0  0
   10.5880  -22.1660    0.9040 H   0  0  0  0  0  0  0  0  0  0  0  0
   10.0560  -22.7780   -0.6800 H   0  0  0  0  0  0  0  0  0  0  0  0
    5.5450  -22.2010   -1.3090 H   0  0  0  0  0  0  0  0  0  0  0  0
    4.1400  -21.8750   -0.2660 H   0  0  0  0  0  0  0  0  0  0  0  0
    7.1750  -25.4880    1.6680 H   0  0  0  0  0  0  0  0  0  0  0  0
    7.2200  -27.7310    0.6470 H   0  0  0  0  0  0  0  0  0  0  0  0
    5.9090  -28.1920   -1.3970 H   0  0  0  0  0  0  0  0  0  0  0  0
    4.5270  -26.4080   -2.4020 H   0  0  0  0  0  0  0  0  0  0  0  0
    4.4660  -24.1610   -1.3860 H   0  0  0  0  0  0  0  0  0  0  0  0
    2.9500  -15.5490    0.3220 H   0  0  0  0  0  0  0  0  0  0  0  0
   -2.2740  -19.3060    1.0900 H   0  0  0  0  0  0  0  0  0  0  0  0
   -4.5210  -19.2650    0.0890 H   0  0  0  0  0  0  0  0  0  0  0  0
   -7.0200  -15.2760    0.0490 H   0  0  0  0  0  0  0  0  0  0  0  0
   -5.8410  -15.3360   -1.2840 H   0  0  0  0  0  0  0  0  0  0  0  0
   -7.3520  -16.8880   -2.5490 H   0  0  0  0  0  0  0  0  0  0  0  0
   -8.1960  -15.3680   -2.1680 H   0  0  0  0  0  0  0  0  0  0  0  0
  -10.5140  -14.8720   -1.0800 H   0  0  0  0  0  0  0  0  0  0  0  0
  -12.0470  -15.2530   -1.9010 H   0  0  0  0  0  0  0  0  0  0  0  0
  1  2  1  0  0  0  0
  1 97  1  0  0  0  0
  1 98  1  0  0  0  0
  1 99  1  0  0  0  0
  2  3  1  0  0  0  0
  2  4  1  0  0  0  0
  2 96  1  0  0  0  0
  3100  1  0  0  0  0
  3101  1  0  0  0  0
  3102  1  0  0  0  0
  4  5  1  0  0  0  0
  4103  1  0  0  0  0
  4104  1  0  0  0  0
  5  6  1  0  0  0  0
  5105  1  0  0  0  0
  5106  1  0  0  0  0
  6  7  1  0  0  0  0
  6 14  2  0  0  0  0
  7  8  1  0  0  0  0
  7 13  2  0  0  0  0
  8  9  2  0  0  0  0
  8107  1  0  0  0  0
  9 10  1  0  0  0  0
  9108  1  0  0  0  0
 10 11  1  0  0  0  0
 10 12  2  0  0  0  0
 12 13  1  0  0  0  0
 12109  1  0  0  0  0
 13110  1  0  0  0  0
 14 15  1  0  0  0  0
 14 96  1  0  0  0  0
 15 16  1  0  0  0  0
 15111  1  0  0  0  0
 15112  1  0  0  0  0
 16 17  1  0  0  0  0
 16 95  1  0  0  0  0
 16113  1  0  0  0  0
 17 18  1  0  0  0  0
 17114  1  0  0  0  0
 17115  1  0  0  0  0
 18 19  1  0  0  0  0
 18116  1  0  0  0  0
 18117  1  0  0  0  0
 19 20  1  0  0  0  0
 19 94  1  0  0  0  0
 20 21  1  0  0  0  0
 20 93  2  0  0  0  0
 21 22  2  0  0  0  0
 21118  1  0  0  0  0
 22 23  1  0  0  0  0
 22119  1  0  0  0  0
 23 24  1  0  0  0  0
 23 92  2  0  0  0  0
 24 25  2  0  0  0  0
 24 26  1  0  0  0  0
 26 27  1  0  0  0  0
 26120  1  0  0  0  0
 27 28  2  0  0  0  0
 27 29  2  0  0  0  0
 27 30  1  0  0  0  0
 30 31  1  0  0  0  0
 30 91  2  0  0  0  0
 31 32  2  0  0  0  0
 31121  1  0  0  0  0
 32 33  1  0  0  0  0
 32122  1  0  0  0  0
 33 34  1  0  0  0  0
 33 83  2  0  0  0  0
 34 35  1  0  0  0  0
 34123  1  0  0  0  0
 35 36  1  0  0  0  0
 35 75  1  0  0  0  0
 35124  1  0  0  0  0
 36 37  1  0  0  0  0
 36125  1  0  0  0  0
 36126  1  0  0  0  0
 37 38  1  0  0  0  0
 37127  1  0  0  0  0
 37128  1  0  0  0  0
 38 39  1  0  0  0  0
 38 74  1  0  0  0  0
 38129  1  0  0  0  0
 39 40  1  0  0  0  0
 39130  1  0  0  0  0
 39131  1  0  0  0  0
 40 41  1  0  0  0  0
 40132  1  0  0  0  0
 40133  1  0  0  0  0
 41 42  1  0  0  0  0
 41 73  1  0  0  0  0
 42 43  2  0  0  0  0
 42 44  1  0  0  0  0
 44 45  1  0  0  0  0
 44134  1  0  0  0  0
 45 46  1  0  0  0  0
 45135  1  0  0  0  0
 45136  1  0  0  0  0
 46 47  1  0  0  0  0
 46137  1  0  0  0  0
 46138  1  0  0  0  0
 47 48  1  0  0  0  0
 48 49  1  0  0  0  0
 48139  1  0  0  0  0
 48140  1  0  0  0  0
 49 50  1  0  0  0  0
 49141  1  0  0  0  0
 49142  1  0  0  0  0
 50 51  1  0  0  0  0
 51 52  1  0  0  0  0
 51143  1  0  0  0  0
 51144  1  0  0  0  0
 52 53  1  0  0  0  0
 52145  1  0  0  0  0
 52146  1  0  0  0  0
 53 54  1  0  0  0  0
 53147  1  0  0  0  0
 54 55  1  0  0  0  0
 54 59  2  0  0  0  0
 55 56  2  0  0  0  0
 55148  1  0  0  0  0
 56 57  1  0  0  0  0
 56149  1  0  0  0  0
 57 58  2  0  0  0  0
 57150  1  0  0  0  0
 58 59  1  0  0  0  0
 58 71  1  0  0  0  0
 59 60  1  0  0  0  0
 60 61  2  0  0  0  0
 60 62  1  0  0  0  0
 62 63  1  0  0  0  0
 62 71  1  0  0  0  0
 63 64  1  0  0  0  0
 63 69  1  0  0  0  0
 63151  1  0  0  0  0
 64 65  1  0  0  0  0
 64152  1  0  0  0  0
 64153  1  0  0  0  0
 65 66  1  0  0  0  0
 65154  1  0  0  0  0
 65155  1  0  0  0  0
 66 67  2  0  0  0  0
 66 68  1  0  0  0  0
 68 69  1  0  0  0  0
 68156  1  0  0  0  0
 69 70  2  0  0  0  0
 71 72  2  0  0  0  0
 73 74  1  0  0  0  0
 73157  1  0  0  0  0
 73158  1  0  0  0  0
 74159  1  0  0  0  0
 74160  1  0  0  0  0
 75 76  1  0  0  0  0
 75161  1  0  0  0  0
 75162  1  0  0  0  0
 76 77  1  0  0  0  0
 77 78  1  0  0  0  0
 77 82  2  0  0  0  0
 78 79  2  0  0  0  0
 78163  1  0  0  0  0
 79 80  1  0  0  0  0
 79164  1  0  0  0  0
 80 81  2  0  0  0  0
 80165  1  0  0  0  0
 81 82  1  0  0  0  0
 81166  1  0  0  0  0
 82167  1  0  0  0  0
 83 84  1  0  0  0  0
 83 91  1  0  0  0  0
 84 85  2  0  0  0  0
 84 86  2  0  0  0  0
 84 87  1  0  0  0  0
 87 88  1  0  0  0  0
 87 89  1  0  0  0  0
 87 90  1  0  0  0  0
 91168  1  0  0  0  0
 92 93  1  0  0  0  0
 92169  1  0  0  0  0
 93170  1  0  0  0  0
 94 95  1  0  0  0  0
 94171  1  0  0  0  0
 94172  1  0  0  0  0
 95173  1  0  0  0  0
 95174  1  0  0  0  0
 96175  1  0  0  0  0
 96176  1  0  0  0  0
M  CHG  1  16   1
M  CHG  1  38   1
M  END
>  <Compound ID>
654

>  <Uniprot>
Q07817

>  <Target>
BCL-xL

>  <E3 ligase>
CRBN

>  <IC50 (nM, Cellular activities)>
722

>  <Assay (Cellular activities, IC50)>
Inhibit viability of MOLT-4 cells

>  <Article DOI>
10.1016/j.ejmech.2020.112186

>  <Molecular Weight>
1420.135

>  <Exact Mass>
1418.4375

>  <XLogP3>
9.79

>  <Heavy Atom Count>
96

>  <Ring Count>
10

>  <Hydrogen Bond Acceptor Count>
18

>  <Hydrogen Bond Donor Count>
5

>  <Rotatable Bond Count>
27

>  <Topological Polar Surface Area>
248.44

>  <Molecular Formula>
C67H78ClF3N10O11S4

>  <InChI>
InChI=1S/C67H78ClF3N10O11S4/c1-66(2)25-23-53(45-11-15-48(68)16-12-45)47(42-66)43-78-31-33-79(34-32-78)50-17-13-46(14-18-50)61(83)76-96(89,90)52-19-20-55(58(41-52)95(87,88)67(69,70)71)74-49(44-94-51-7-4-3-5-8-51)24-28-77-29-35-80(36-30-77)65(93)73-27-38-92-40-39-91-37-26-72-56-10-6-9-54-60(56)64(86)81(63(54)85)57-21-22-59(82)75-62(57)84/h3-20,41,49,57,72,74H,21-40,42-44H2,1-2H3,(H,73,93)(H,76,83)(H,75,82,84)/t49-,57?/m1/s1

>  <InChI Key>
SLGLVPOGJGXKNW-LKVFYHIZSA-N

$$$$
655
  MOE2018           3D

165174  0  0  1  0  0  0  0  0999 V2000
  -15.0020   17.1630    2.1980 C   0  0  0  0  0  0  0  0  0  0  0  0
  -14.1820   16.8410    0.9340 C   0  0  0  0  0  0  0  0  0  0  0  0
  -14.0360   15.3110    0.8640 C   0  0  0  0  0  0  0  0  0  0  0  0
  -14.9940   17.3360   -0.3050 C   0  0  0  0  0  0  0  0  0  0  0  0
  -14.0720   17.9890   -1.3550 C   0  0  0  0  0  0  0  0  0  0  0  0
  -13.4250   19.1490   -0.6190 C   0  0  0  0  0  0  0  0  0  0  0  0
  -13.5250   20.4710   -1.2280 C   0  0  0  0  0  0  0  0  0  0  0  0
  -14.1570   21.5260   -0.5570 C   0  0  0  0  0  0  0  0  0  0  0  0
  -14.2140   22.7940   -1.1230 C   0  0  0  0  0  0  0  0  0  0  0  0
  -13.6490   23.0210   -2.3790 C   0  0  0  0  0  0  0  0  0  0  0  0
  -13.7030   24.6040   -3.0790 Cl  0  0  0  0  0  0  0  0  0  0  0  0
  -13.0430   21.9720   -3.0710 C   0  0  0  0  0  0  0  0  0  0  0  0
  -12.9880   20.7060   -2.5000 C   0  0  0  0  0  0  0  0  0  0  0  0
  -12.8070   18.8970    0.5560 C   0  0  0  0  0  0  0  0  0  0  0  0
  -12.1180   19.9630    1.3810 C   0  0  0  0  0  0  0  0  0  0  0  0
  -10.7010   19.7440    1.0940 N   0  3  0  0  0  0  0  0  0  0  0  0
  -10.3930   20.3950   -0.2250 C   0  0  0  0  0  0  0  0  0  0  0  0
   -8.9090   20.1310   -0.5750 C   0  0  0  0  0  0  0  0  0  0  0  0
   -8.0990   20.7300    0.5140 N   0  0  0  0  0  0  0  0  0  0  0  0
   -6.7550   21.0360    0.2570 C   0  0  0  0  0  0  0  0  0  0  0  0
   -6.1330   22.0230    1.0290 C   0  0  0  0  0  0  0  0  0  0  0  0
   -4.8070   22.3570    0.7940 C   0  0  0  0  0  0  0  0  0  0  0  0
   -4.0700   21.7150   -0.2180 C   0  0  0  0  0  0  0  0  0  0  0  0
   -2.6750   22.0630   -0.5020 C   0  0  0  0  0  0  0  0  0  0  0  0
   -1.9960   21.5640   -1.3850 O   0  0  0  0  0  0  0  0  0  0  0  0
   -2.0060   22.9890    0.1920 N   0  0  0  0  0  0  0  0  0  0  0  0
   -1.1850   22.3170    1.4500 S   0  0  0  0  0  0  0  0  0  0  0  0
   -0.5750   23.3690    2.1690 O   0  0  0  0  0  0  0  0  0  0  0  0
   -2.0800   21.4940    2.1760 O   0  0  0  0  0  0  0  0  0  0  0  0
    0.1000   21.2800    0.7060 C   0  0  0  0  0  0  0  0  0  0  0  0
    0.1460   19.9080    0.9710 C   0  0  0  0  0  0  0  0  0  0  0  0
    1.1100   19.1030    0.3820 C   0  0  0  0  0  0  0  0  0  0  0  0
    2.0460   19.6580   -0.4960 C   0  0  0  0  0  0  0  0  0  0  0  0
    3.0180   18.8310   -1.0790 N   0  0  0  0  0  0  0  0  0  0  0  0
    3.6840   17.8250   -0.2590 C   0  0  2  0  0  0  0  0  0  0  0  0
    5.1760   18.0750   -0.5450 C   0  0  0  0  0  0  0  0  0  0  0  0
    6.0320   17.1410    0.3200 C   0  0  0  0  0  0  0  0  0  0  0  0
    7.4150   17.4990   -0.0230 N   0  3  0  0  0  0  0  0  0  0  0  0
    7.8880   18.5840    0.8920 C   0  0  0  0  0  0  0  0  0  0  0  0
    9.3000   19.0020    0.4130 C   0  0  0  0  0  0  0  0  0  0  0  0
   10.1980   17.8210    0.5350 N   0  0  0  0  0  0  0  0  0  0  0  0
   11.5710   18.2140    0.1060 C   0  0  0  0  0  0  0  0  0  0  0  0
   12.5730   17.2640    0.7820 C   0  0  0  0  0  0  0  0  0  0  0  0
   13.8320   17.6500    0.2550 O   0  0  0  0  0  0  0  0  0  0  0  0
   14.9080   16.8730    0.7640 C   0  0  0  0  0  0  0  0  0  0  0  0
   16.2090   17.3410    0.1090 C   0  0  0  0  0  0  0  0  0  0  0  0
   17.2690   16.4520    0.6070 N   0  0  0  0  0  0  0  0  0  0  0  0
   18.5680   16.5800    0.1270 C   0  0  0  0  0  0  0  0  0  0  0  0
   19.1190   17.8280   -0.2030 C   0  0  0  0  0  0  0  0  0  0  0  0
   20.4320   17.9100   -0.6760 C   0  0  0  0  0  0  0  0  0  0  0  0
   21.2110   16.7580   -0.8210 C   0  0  0  0  0  0  0  0  0  0  0  0
   20.6510   15.5250   -0.4850 C   0  0  0  0  0  0  0  0  0  0  0  0
   19.3550   15.4320   -0.0200 C   0  0  0  0  0  0  0  0  0  0  0  0
   19.0640   14.0450    0.2130 C   0  0  0  0  0  0  0  0  0  0  0  0
   18.0200   13.5130    0.5770 O   0  0  0  0  0  0  0  0  0  0  0  0
   20.2030   13.3130   -0.0980 N   0  0  0  0  0  0  0  0  0  0  0  0
   20.4200   11.8740    0.1040 C   0  0  2  0  0  0  0  0  0  0  0  0
   19.4930   11.1040   -0.8720 C   0  0  0  0  0  0  0  0  0  0  0  0
   19.6780    9.5980   -0.5730 C   0  0  0  0  0  0  0  0  0  0  0  0
   19.2580    9.3480    0.8630 C   0  0  0  0  0  0  0  0  0  0  0  0
   18.6870    8.3520    1.2240 O   0  0  0  0  0  0  0  0  0  0  0  0
   19.5430   10.2660    1.8220 N   0  0  0  0  0  0  0  0  0  0  0  0
   20.0950   11.4820    1.5560 C   0  0  0  0  0  0  0  0  0  0  0  0
   20.3390   12.1700    2.5210 O   0  0  0  0  0  0  0  0  0  0  0  0
   21.1850   14.1850   -0.5310 C   0  0  0  0  0  0  0  0  0  0  0  0
   22.2850   13.7950   -0.8900 O   0  0  0  0  0  0  0  0  0  0  0  0
    9.7020   16.6720   -0.2830 C   0  0  0  0  0  0  0  0  0  0  0  0
    8.2800   16.3090    0.2160 C   0  0  0  0  0  0  0  0  0  0  0  0
    3.1560   16.4550   -0.7260 C   0  0  0  0  0  0  0  0  0  0  0  0
    3.5310   15.2780    0.6250 S   0  0  0  0  0  0  0  0  0  0  0  0
    3.5110   13.6820   -0.0950 C   0  0  0  0  0  0  0  0  0  0  0  0
    4.1040   12.6270    0.6070 C   0  0  0  0  0  0  0  0  0  0  0  0
    4.1370   11.3500    0.0600 C   0  0  0  0  0  0  0  0  0  0  0  0
    3.5730   11.1090   -1.1900 C   0  0  0  0  0  0  0  0  0  0  0  0
    2.9660   12.1500   -1.8860 C   0  0  0  0  0  0  0  0  0  0  0  0
    2.9270   13.4300   -1.3450 C   0  0  0  0  0  0  0  0  0  0  0  0
    2.0010   21.0280   -0.8060 C   0  0  0  0  0  0  0  0  0  0  0  0
    3.1430   21.7840   -1.9830 S   0  0  0  0  0  0  0  0  0  0  0  0
    3.2490   23.1690   -1.6650 O   0  0  0  0  0  0  0  0  0  0  0  0
    4.3790   21.0580   -1.9660 O   0  0  0  0  0  0  0  0  0  0  0  0
    2.2600   21.5550   -3.6470 C   0  0  0  0  0  0  0  0  0  0  0  0
    2.9030   22.1080   -4.7010 F   0  0  0  0  0  0  0  0  0  0  0  0
    1.0160   22.0870   -3.6830 F   0  0  0  0  0  0  0  0  0  0  0  0
    2.0860   20.2590   -3.9990 F   0  0  0  0  0  0  0  0  0  0  0  0
    1.0450   21.8250   -0.1690 C   0  0  0  0  0  0  0  0  0  0  0  0
   -4.7080   20.7220   -0.9810 C   0  0  0  0  0  0  0  0  0  0  0  0
   -6.0340   20.3840   -0.7520 C   0  0  0  0  0  0  0  0  0  0  0  0
   -8.3820   20.1890    1.8680 C   0  0  0  0  0  0  0  0  0  0  0  0
   -9.8890   20.4330    2.1510 C   0  0  0  0  0  0  0  0  0  0  0  0
  -12.7570   17.4650    1.0710 C   0  0  0  0  0  0  0  0  0  0  0  0
  -15.9980   16.7290    2.1060 H   0  0  0  0  0  0  0  0  0  0  0  0
  -15.0860   18.2440    2.3110 H   0  0  0  0  0  0  0  0  0  0  0  0
  -14.5030   16.7440    3.0720 H   0  0  0  0  0  0  0  0  0  0  0  0
  -15.0220   14.8560    0.7680 H   0  0  0  0  0  0  0  0  0  0  0  0
  -13.5560   14.9500    1.7740 H   0  0  0  0  0  0  0  0  0  0  0  0
  -13.4270   15.0430    0.0010 H   0  0  0  0  0  0  0  0  0  0  0  0
  -15.5030   16.4860   -0.7590 H   0  0  0  0  0  0  0  0  0  0  0  0
  -15.7320   18.0680    0.0230 H   0  0  0  0  0  0  0  0  0  0  0  0
  -14.6500   18.3470   -2.2070 H   0  0  0  0  0  0  0  0  0  0  0  0
  -13.3180   17.2820   -1.6990 H   0  0  0  0  0  0  0  0  0  0  0  0
  -14.6050   21.3520    0.4100 H   0  0  0  0  0  0  0  0  0  0  0  0
  -14.6950   23.6020   -0.5920 H   0  0  0  0  0  0  0  0  0  0  0  0
  -12.6170   22.1430   -4.0490 H   0  0  0  0  0  0  0  0  0  0  0  0
  -12.5260   19.8950   -3.0430 H   0  0  0  0  0  0  0  0  0  0  0  0
  -12.3270   19.8310    2.4430 H   0  0  0  0  0  0  0  0  0  0  0  0
  -12.4300   20.9600    1.0700 H   0  0  0  0  0  0  0  0  0  0  0  0
  -10.4900   18.7570    1.0720 H   0  0  0  0  0  0  0  0  0  0  0  0
  -11.0330   19.9740   -1.0000 H   0  0  0  0  0  0  0  0  0  0  0  0
  -10.5670   21.4690   -0.1540 H   0  0  0  0  0  0  0  0  0  0  0  0
   -8.6600   20.5970   -1.5280 H   0  0  0  0  0  0  0  0  0  0  0  0
   -8.7230   19.0590   -0.6350 H   0  0  0  0  0  0  0  0  0  0  0  0
   -6.6860   22.5260    1.8090 H   0  0  0  0  0  0  0  0  0  0  0  0
   -4.3350   23.1190    1.3960 H   0  0  0  0  0  0  0  0  0  0  0  0
   -2.0050   23.9750   -0.0280 H   0  0  0  0  0  0  0  0  0  0  0  0
   -0.5780   19.4700    1.6420 H   0  0  0  0  0  0  0  0  0  0  0  0
    1.1380   18.0460    0.6020 H   0  0  0  0  0  0  0  0  0  0  0  0
    3.2540   18.9310   -2.0560 H   0  0  0  0  0  0  0  0  0  0  0  0
    3.5100   17.8630    0.8160 H   0  0  0  0  0  0  0  0  0  0  0  0
    5.3800   17.8820   -1.5980 H   0  0  0  0  0  0  0  0  0  0  0  0
    5.4210   19.1110   -0.3110 H   0  0  0  0  0  0  0  0  0  0  0  0
    5.8310   16.0970    0.0770 H   0  0  0  0  0  0  0  0  0  0  0  0
    5.8400   17.3110    1.3790 H   0  0  0  0  0  0  0  0  0  0  0  0
    7.4580   17.8020   -0.9850 H   0  0  0  0  0  0  0  0  0  0  0  0
    7.2100   19.4360    0.8440 H   0  0  0  0  0  0  0  0  0  0  0  0
    7.9350   18.2150    1.9160 H   0  0  0  0  0  0  0  0  0  0  0  0
    9.6740   19.8170    1.0330 H   0  0  0  0  0  0  0  0  0  0  0  0
    9.2560   19.3270   -0.6260 H   0  0  0  0  0  0  0  0  0  0  0  0
   11.6570   18.1320   -0.9770 H   0  0  0  0  0  0  0  0  0  0  0  0
   11.7730   19.2410    0.4100 H   0  0  0  0  0  0  0  0  0  0  0  0
   12.3510   16.2270    0.5310 H   0  0  0  0  0  0  0  0  0  0  0  0
   12.5530   17.3880    1.8650 H   0  0  0  0  0  0  0  0  0  0  0  0
   14.9750   17.0030    1.8440 H   0  0  0  0  0  0  0  0  0  0  0  0
   14.7400   15.8210    0.5340 H   0  0  0  0  0  0  0  0  0  0  0  0
   16.4210   18.3730    0.3880 H   0  0  0  0  0  0  0  0  0  0  0  0
   16.1330   17.2660   -0.9760 H   0  0  0  0  0  0  0  0  0  0  0  0
   17.0540   15.7480    1.2980 H   0  0  0  0  0  0  0  0  0  0  0  0
   18.5280   18.7250   -0.0910 H   0  0  0  0  0  0  0  0  0  0  0  0
   20.8490   18.8730   -0.9320 H   0  0  0  0  0  0  0  0  0  0  0  0
   22.2260   16.8210   -1.1860 H   0  0  0  0  0  0  0  0  0  0  0  0
   21.4640   11.6250   -0.0890 H   0  0  0  0  0  0  0  0  0  0  0  0
   18.4550   11.3940   -0.7100 H   0  0  0  0  0  0  0  0  0  0  0  0
   19.7730   11.3190   -1.9030 H   0  0  0  0  0  0  0  0  0  0  0  0
   20.7240    9.3210   -0.7060 H   0  0  0  0  0  0  0  0  0  0  0  0
   19.0570    9.0080   -1.2480 H   0  0  0  0  0  0  0  0  0  0  0  0
   19.3350   10.0350    2.7830 H   0  0  0  0  0  0  0  0  0  0  0  0
    9.6640   16.9560   -1.3350 H   0  0  0  0  0  0  0  0  0  0  0  0
   10.3670   15.8170   -0.1610 H   0  0  0  0  0  0  0  0  0  0  0  0
    8.3060   16.0730    1.2800 H   0  0  0  0  0  0  0  0  0  0  0  0
    7.8970   15.4510   -0.3370 H   0  0  0  0  0  0  0  0  0  0  0  0
    3.6580   16.1490   -1.6440 H   0  0  0  0  0  0  0  0  0  0  0  0
    2.0810   16.5030   -0.8980 H   0  0  0  0  0  0  0  0  0  0  0  0
    4.5390   12.8060    1.5790 H   0  0  0  0  0  0  0  0  0  0  0  0
    4.6010   10.5420    0.6060 H   0  0  0  0  0  0  0  0  0  0  0  0
    3.6060   10.1180   -1.6180 H   0  0  0  0  0  0  0  0  0  0  0  0
    2.5220   11.9620   -2.8530 H   0  0  0  0  0  0  0  0  0  0  0  0
    2.4470   14.2310   -1.8880 H   0  0  0  0  0  0  0  0  0  0  0  0
    1.0360   22.8880   -0.3570 H   0  0  0  0  0  0  0  0  0  0  0  0
   -4.1570   20.2140   -1.7580 H   0  0  0  0  0  0  0  0  0  0  0  0
   -6.5090   19.6200   -1.3500 H   0  0  0  0  0  0  0  0  0  0  0  0
   -8.1640   19.1210    1.8970 H   0  0  0  0  0  0  0  0  0  0  0  0
   -7.7740   20.7040    2.6110 H   0  0  0  0  0  0  0  0  0  0  0  0
  -10.0960   21.5030    2.1320 H   0  0  0  0  0  0  0  0  0  0  0  0
  -10.1470   20.0310    3.1310 H   0  0  0  0  0  0  0  0  0  0  0  0
  -12.0440   16.8870    0.4830 H   0  0  0  0  0  0  0  0  0  0  0  0
  -12.4520   17.4610    2.1180 H   0  0  0  0  0  0  0  0  0  0  0  0
  1  2  1  0  0  0  0
  1 91  1  0  0  0  0
  1 92  1  0  0  0  0
  1 93  1  0  0  0  0
  2  3  1  0  0  0  0
  2  4  1  0  0  0  0
  2 90  1  0  0  0  0
  3 94  1  0  0  0  0
  3 95  1  0  0  0  0
  3 96  1  0  0  0  0
  4  5  1  0  0  0  0
  4 97  1  0  0  0  0
  4 98  1  0  0  0  0
  5  6  1  0  0  0  0
  5 99  1  0  0  0  0
  5100  1  0  0  0  0
  6  7  1  0  0  0  0
  6 14  2  0  0  0  0
  7  8  1  0  0  0  0
  7 13  2  0  0  0  0
  8  9  2  0  0  0  0
  8101  1  0  0  0  0
  9 10  1  0  0  0  0
  9102  1  0  0  0  0
 10 11  1  0  0  0  0
 10 12  2  0  0  0  0
 12 13  1  0  0  0  0
 12103  1  0  0  0  0
 13104  1  0  0  0  0
 14 15  1  0  0  0  0
 14 90  1  0  0  0  0
 15 16  1  0  0  0  0
 15105  1  0  0  0  0
 15106  1  0  0  0  0
 16 17  1  0  0  0  0
 16 89  1  0  0  0  0
 16107  1  0  0  0  0
 17 18  1  0  0  0  0
 17108  1  0  0  0  0
 17109  1  0  0  0  0
 18 19  1  0  0  0  0
 18110  1  0  0  0  0
 18111  1  0  0  0  0
 19 20  1  0  0  0  0
 19 88  1  0  0  0  0
 20 21  1  0  0  0  0
 20 87  2  0  0  0  0
 21 22  2  0  0  0  0
 21112  1  0  0  0  0
 22 23  1  0  0  0  0
 22113  1  0  0  0  0
 23 24  1  0  0  0  0
 23 86  2  0  0  0  0
 24 25  2  0  0  0  0
 24 26  1  0  0  0  0
 26 27  1  0  0  0  0
 26114  1  0  0  0  0
 27 28  2  0  0  0  0
 27 29  2  0  0  0  0
 27 30  1  0  0  0  0
 30 31  1  0  0  0  0
 30 85  2  0  0  0  0
 31 32  2  0  0  0  0
 31115  1  0  0  0  0
 32 33  1  0  0  0  0
 32116  1  0  0  0  0
 33 34  1  0  0  0  0
 33 77  2  0  0  0  0
 34 35  1  0  0  0  0
 34117  1  0  0  0  0
 35 36  1  0  0  0  0
 35 69  1  0  0  0  0
 35118  1  0  0  0  0
 36 37  1  0  0  0  0
 36119  1  0  0  0  0
 36120  1  0  0  0  0
 37 38  1  0  0  0  0
 37121  1  0  0  0  0
 37122  1  0  0  0  0
 38 39  1  0  0  0  0
 38 68  1  0  0  0  0
 38123  1  0  0  0  0
 39 40  1  0  0  0  0
 39124  1  0  0  0  0
 39125  1  0  0  0  0
 40 41  1  0  0  0  0
 40126  1  0  0  0  0
 40127  1  0  0  0  0
 41 42  1  0  0  0  0
 41 67  1  0  0  0  0
 42 43  1  0  0  0  0
 42128  1  0  0  0  0
 42129  1  0  0  0  0
 43 44  1  0  0  0  0
 43130  1  0  0  0  0
 43131  1  0  0  0  0
 44 45  1  0  0  0  0
 45 46  1  0  0  0  0
 45132  1  0  0  0  0
 45133  1  0  0  0  0
 46 47  1  0  0  0  0
 46134  1  0  0  0  0
 46135  1  0  0  0  0
 47 48  1  0  0  0  0
 47136  1  0  0  0  0
 48 49  1  0  0  0  0
 48 53  2  0  0  0  0
 49 50  2  0  0  0  0
 49137  1  0  0  0  0
 50 51  1  0  0  0  0
 50138  1  0  0  0  0
 51 52  2  0  0  0  0
 51139  1  0  0  0  0
 52 53  1  0  0  0  0
 52 65  1  0  0  0  0
 53 54  1  0  0  0  0
 54 55  2  0  0  0  0
 54 56  1  0  0  0  0
 56 57  1  0  0  0  0
 56 65  1  0  0  0  0
 57 58  1  0  0  0  0
 57 63  1  0  0  0  0
 57140  1  0  0  0  0
 58 59  1  0  0  0  0
 58141  1  0  0  0  0
 58142  1  0  0  0  0
 59 60  1  0  0  0  0
 59143  1  0  0  0  0
 59144  1  0  0  0  0
 60 61  2  0  0  0  0
 60 62  1  0  0  0  0
 62 63  1  0  0  0  0
 62145  1  0  0  0  0
 63 64  2  0  0  0  0
 65 66  2  0  0  0  0
 67 68  1  0  0  0  0
 67146  1  0  0  0  0
 67147  1  0  0  0  0
 68148  1  0  0  0  0
 68149  1  0  0  0  0
 69 70  1  0  0  0  0
 69150  1  0  0  0  0
 69151  1  0  0  0  0
 70 71  1  0  0  0  0
 71 72  1  0  0  0  0
 71 76  2  0  0  0  0
 72 73  2  0  0  0  0
 72152  1  0  0  0  0
 73 74  1  0  0  0  0
 73153  1  0  0  0  0
 74 75  2  0  0  0  0
 74154  1  0  0  0  0
 75 76  1  0  0  0  0
 75155  1  0  0  0  0
 76156  1  0  0  0  0
 77 78  1  0  0  0  0
 77 85  1  0  0  0  0
 78 79  2  0  0  0  0
 78 80  2  0  0  0  0
 78 81  1  0  0  0  0
 81 82  1  0  0  0  0
 81 83  1  0  0  0  0
 81 84  1  0  0  0  0
 85157  1  0  0  0  0
 86 87  1  0  0  0  0
 86158  1  0  0  0  0
 87159  1  0  0  0  0
 88 89  1  0  0  0  0
 88160  1  0  0  0  0
 88161  1  0  0  0  0
 89162  1  0  0  0  0
 89163  1  0  0  0  0
 90164  1  0  0  0  0
 90165  1  0  0  0  0
M  CHG  1  16   1
M  CHG  1  38   1
M  END
>  <Compound ID>
655

>  <Uniprot>
Q07817

>  <Target>
BCL-xL

>  <E3 ligase>
CRBN

>  <IC50 (nM, Cellular activities)>
60.5

>  <Assay (Cellular activities, IC50)>
Inhibit viability of MOLT-4 cells

>  <Article DOI>
10.1016/j.ejmech.2020.112186

>  <Molecular Weight>
1316.989

>  <Exact Mass>
1315.4283

>  <XLogP3>
10.05

>  <Heavy Atom Count>
90

>  <Ring Count>
10

>  <Hydrogen Bond Acceptor Count>
17

>  <Hydrogen Bond Donor Count>
4

>  <Rotatable Bond Count>
24

>  <Topological Polar Surface Area>
227.17999

>  <Molecular Formula>
C64H73ClF3N9O10S3

>  <InChI>
InChI=1S/C64H73ClF3N9O10S3/c1-63(2)25-23-51(43-11-15-46(65)16-12-43)45(40-63)41-75-32-34-76(35-33-75)48-17-13-44(14-18-48)59(79)72-90(85,86)50-19-20-53(56(39-50)89(83,84)64(66,67)68)70-47(42-88-49-7-4-3-5-8-49)24-27-73-28-30-74(31-29-73)36-38-87-37-26-69-54-10-6-9-52-58(54)62(82)77(61(52)81)55-21-22-57(78)71-60(55)80/h3-20,39,47,55,69-70H,21-38,40-42H2,1-2H3,(H,72,79)(H,71,78,80)/t47-,55?/m1/s1

>  <InChI Key>
IYIOGVQABFXBJW-IQRNJRIOSA-N

$$$$
656
  MOE2018           3D

172181  0  0  1  0  0  0  0  0999 V2000
  -35.2890    8.9140   -0.0040 C   0  0  0  0  0  0  0  0  0  0  0  0
  -34.8980   10.3920    0.1760 C   0  0  0  0  0  0  0  0  0  0  0  0
  -36.0460   11.0600    0.9610 C   0  0  0  0  0  0  0  0  0  0  0  0
  -34.6810   10.9880   -1.2290 C   0  0  0  0  0  0  0  0  0  0  0  0
  -34.3970   12.5000   -1.1240 C   0  0  0  0  0  0  0  0  0  0  0  0
  -33.3460   12.7800   -0.0540 C   0  0  0  0  0  0  0  0  0  0  0  0
  -32.7970   14.1320   -0.0930 C   0  0  0  0  0  0  0  0  0  0  0  0
  -33.0500   15.0350    0.9480 C   0  0  0  0  0  0  0  0  0  0  0  0
  -32.4960   16.3100    0.9320 C   0  0  0  0  0  0  0  0  0  0  0  0
  -31.6890   16.7040   -0.1360 C   0  0  0  0  0  0  0  0  0  0  0  0
  -30.9820   18.2850   -0.1500 Cl  0  0  0  0  0  0  0  0  0  0  0  0
  -31.4520   15.8250   -1.1930 C   0  0  0  0  0  0  0  0  0  0  0  0
  -32.0080   14.5510   -1.1730 C   0  0  0  0  0  0  0  0  0  0  0  0
  -32.9920   11.8740    0.8920 C   0  0  0  0  0  0  0  0  0  0  0  0
  -31.9660   12.1880    1.9630 C   0  0  0  0  0  0  0  0  0  0  0  0
  -30.7700   11.4770    1.5120 N   0  3  0  0  0  0  0  0  0  0  0  0
  -29.8740   11.2700    2.6950 C   0  0  0  0  0  0  0  0  0  0  0  0
  -28.6120   10.4940    2.2380 C   0  0  0  0  0  0  0  0  0  0  0  0
  -27.9470   11.3340    1.2120 N   0  0  0  0  0  0  0  0  0  0  0  0
  -26.5700   11.1260    1.0460 C   0  0  0  0  0  0  0  0  0  0  0  0
  -26.0290   10.7230   -0.1830 C   0  0  0  0  0  0  0  0  0  0  0  0
  -24.6610   10.5250   -0.3050 C   0  0  0  0  0  0  0  0  0  0  0  0
  -23.7990   10.7240    0.7900 C   0  0  0  0  0  0  0  0  0  0  0  0
  -22.3530   10.5040    0.6850 C   0  0  0  0  0  0  0  0  0  0  0  0
  -21.5500   10.6440    1.5930 O   0  0  0  0  0  0  0  0  0  0  0  0
  -21.7770   10.1200   -0.4600 N   0  0  0  0  0  0  0  0  0  0  0  0
  -21.2490   11.4100   -1.3350 S   0  0  0  0  0  0  0  0  0  0  0  0
  -21.1910   11.0090   -2.6890 O   0  0  0  0  0  0  0  0  0  0  0  0
  -22.0760   12.5240   -1.0520 O   0  0  0  0  0  0  0  0  0  0  0  0
  -19.5720   11.7450   -0.7350 C   0  0  0  0  0  0  0  0  0  0  0  0
  -19.3620   12.5910    0.3560 C   0  0  0  0  0  0  0  0  0  0  0  0
  -18.0790   12.8660    0.8050 C   0  0  0  0  0  0  0  0  0  0  0  0
  -16.9740   12.3150    0.1520 C   0  0  0  0  0  0  0  0  0  0  0  0
  -15.7080   12.6830    0.6220 N   0  0  0  0  0  0  0  0  0  0  0  0
  -15.0620   13.8180   -0.0940 C   0  0  2  0  0  0  0  0  0  0  0  0
  -13.6180   13.8990    0.4450 C   0  0  0  0  0  0  0  0  0  0  0  0
  -12.8810   12.6800   -0.1190 C   0  0  0  0  0  0  0  0  0  0  0  0
  -11.5180   12.7270    0.4320 N   0  3  0  0  0  0  0  0  0  0  0  0
  -10.9800   11.3330    0.3850 C   0  0  0  0  0  0  0  0  0  0  0  0
   -9.5600   11.3480    1.0070 C   0  0  0  0  0  0  0  0  0  0  0  0
   -8.7100   12.2310    0.1580 N   0  0  0  0  0  0  0  0  0  0  0  0
   -7.3000   12.2320    0.6420 C   0  0  0  0  0  0  0  0  0  0  0  0
   -6.5980   11.0280   -0.0070 C   0  0  0  0  0  0  0  0  0  0  0  0
   -5.2720   11.0620    0.4980 O   0  0  0  0  0  0  0  0  0  0  0  0
   -4.4540   10.0370   -0.0530 C   0  0  0  0  0  0  0  0  0  0  0  0
   -3.0510   10.1330    0.5410 C   0  0  0  0  0  0  0  0  0  0  0  0
   -2.2230    9.1420   -0.0550 O   0  0  0  0  0  0  0  0  0  0  0  0
   -0.8940    9.1670    0.4530 C   0  0  0  0  0  0  0  0  0  0  0  0
   -0.0490    8.1190   -0.2760 C   0  0  0  0  0  0  0  0  0  0  0  0
    1.2870    8.1670    0.3440 N   0  0  0  0  0  0  0  0  0  0  0  0
    1.7620    7.1390    1.1550 C   0  0  0  0  0  0  0  0  0  0  0  0
    0.9030    6.3680    1.9550 C   0  0  0  0  0  0  0  0  0  0  0  0
    1.4220    5.3490    2.7590 C   0  0  0  0  0  0  0  0  0  0  0  0
    2.7960    5.0890    2.7830 C   0  0  0  0  0  0  0  0  0  0  0  0
    3.6380    5.8690    1.9910 C   0  0  0  0  0  0  0  0  0  0  0  0
    3.1370    6.8770    1.1890 C   0  0  0  0  0  0  0  0  0  0  0  0
    4.2410    7.4860    0.5010 C   0  0  0  0  0  0  0  0  0  0  0  0
    4.2490    8.4170   -0.2980 O   0  0  0  0  0  0  0  0  0  0  0  0
    5.4030    6.8390    0.9010 N   0  0  0  0  0  0  0  0  0  0  0  0
    6.7630    7.0390    0.3760 C   0  0  2  0  0  0  0  0  0  0  0  0
    7.2330    8.4600    0.7810 C   0  0  0  0  0  0  0  0  0  0  0  0
    8.6280    8.6690    0.1460 C   0  0  0  0  0  0  0  0  0  0  0  0
    8.4810    8.5670   -1.3610 C   0  0  0  0  0  0  0  0  0  0  0  0
    9.1110    9.2400   -2.1350 O   0  0  0  0  0  0  0  0  0  0  0  0
    7.6200    7.6660   -1.8990 N   0  0  0  0  0  0  0  0  0  0  0  0
    6.7720    6.9030   -1.1560 C   0  0  0  0  0  0  0  0  0  0  0  0
    6.0960    6.1140   -1.7770 O   0  0  0  0  0  0  0  0  0  0  0  0
    5.0700    5.8510    1.8080 C   0  0  0  0  0  0  0  0  0  0  0  0
    5.9130    5.1360    2.3270 O   0  0  0  0  0  0  0  0  0  0  0  0
   -9.2390   13.6200    0.1420 C   0  0  0  0  0  0  0  0  0  0  0  0
  -10.6650   13.5710   -0.4650 C   0  0  0  0  0  0  0  0  0  0  0  0
  -15.8450   15.1170    0.1950 C   0  0  0  0  0  0  0  0  0  0  0  0
  -15.0680   16.4280   -0.8180 S   0  0  0  0  0  0  0  0  0  0  0  0
  -15.8310   17.9380   -0.3620 C   0  0  0  0  0  0  0  0  0  0  0  0
  -17.0060   17.9910    0.4030 C   0  0  0  0  0  0  0  0  0  0  0  0
  -17.5610   19.2190    0.7460 C   0  0  0  0  0  0  0  0  0  0  0  0
  -16.9590   20.4040    0.3300 C   0  0  0  0  0  0  0  0  0  0  0  0
  -15.7990   20.3580   -0.4370 C   0  0  0  0  0  0  0  0  0  0  0  0
  -15.2380   19.1340   -0.7830 C   0  0  0  0  0  0  0  0  0  0  0  0
  -17.1540   11.4170   -0.9140 C   0  0  0  0  0  0  0  0  0  0  0  0
  -15.7810   10.5050   -1.6580 S   0  0  0  0  0  0  0  0  0  0  0  0
  -16.2880    9.7830   -2.7760 O   0  0  0  0  0  0  0  0  0  0  0  0
  -14.7020   11.3970   -1.9530 O   0  0  0  0  0  0  0  0  0  0  0  0
  -15.2740    9.2990   -0.2840 C   0  0  0  0  0  0  0  0  0  0  0  0
  -16.3170    8.7930    0.4170 F   0  0  0  0  0  0  0  0  0  0  0  0
  -14.4540    9.8400    0.6630 F   0  0  0  0  0  0  0  0  0  0  0  0
  -14.5920    8.2150   -0.7180 F   0  0  0  0  0  0  0  0  0  0  0  0
  -18.4590   11.1720   -1.3600 C   0  0  0  0  0  0  0  0  0  0  0  0
  -24.3580   11.1370    2.0110 C   0  0  0  0  0  0  0  0  0  0  0  0
  -25.7250   11.3380    2.1400 C   0  0  0  0  0  0  0  0  0  0  0  0
  -28.7820   11.6280    0.0200 C   0  0  0  0  0  0  0  0  0  0  0  0
  -30.0530   12.3590    0.5280 C   0  0  0  0  0  0  0  0  0  0  0  0
  -33.5720   10.4610    0.9670 C   0  0  0  0  0  0  0  0  0  0  0  0
  -36.2240    8.8510   -0.5610 H   0  0  0  0  0  0  0  0  0  0  0  0
  -35.4170    8.4500    0.9740 H   0  0  0  0  0  0  0  0  0  0  0  0
  -34.5030    8.3940   -0.5520 H   0  0  0  0  0  0  0  0  0  0  0  0
  -36.9670   10.9970    0.3820 H   0  0  0  0  0  0  0  0  0  0  0  0
  -35.8010   12.1070    1.1420 H   0  0  0  0  0  0  0  0  0  0  0  0
  -36.1810   10.5480    1.9140 H   0  0  0  0  0  0  0  0  0  0  0  0
  -33.8330   10.4940   -1.7030 H   0  0  0  0  0  0  0  0  0  0  0  0
  -35.5760   10.8300   -1.8300 H   0  0  0  0  0  0  0  0  0  0  0  0
  -35.3190   13.0200   -0.8640 H   0  0  0  0  0  0  0  0  0  0  0  0
  -34.0340   12.8630   -2.0850 H   0  0  0  0  0  0  0  0  0  0  0  0
  -33.6820   14.7370    1.7720 H   0  0  0  0  0  0  0  0  0  0  0  0
  -32.6900   16.9940    1.7450 H   0  0  0  0  0  0  0  0  0  0  0  0
  -30.8370   16.1340   -2.0260 H   0  0  0  0  0  0  0  0  0  0  0  0
  -31.8300   13.8770   -1.9980 H   0  0  0  0  0  0  0  0  0  0  0  0
  -32.2940   11.8210    2.9360 H   0  0  0  0  0  0  0  0  0  0  0  0
  -31.7820   13.2610    2.0230 H   0  0  0  0  0  0  0  0  0  0  0  0
  -31.0140   10.5910    1.0920 H   0  0  0  0  0  0  0  0  0  0  0  0
  -29.5810   12.2360    3.1060 H   0  0  0  0  0  0  0  0  0  0  0  0
  -30.4010   10.6960    3.4570 H   0  0  0  0  0  0  0  0  0  0  0  0
  -28.8960    9.5320    1.8110 H   0  0  0  0  0  0  0  0  0  0  0  0
  -27.9430   10.3330    3.0830 H   0  0  0  0  0  0  0  0  0  0  0  0
  -26.6760   10.5670   -1.0340 H   0  0  0  0  0  0  0  0  0  0  0  0
  -24.2510   10.2130   -1.2550 H   0  0  0  0  0  0  0  0  0  0  0  0
  -21.6780    9.1580   -0.7510 H   0  0  0  0  0  0  0  0  0  0  0  0
  -20.2090   13.0370    0.8560 H   0  0  0  0  0  0  0  0  0  0  0  0
  -17.9340   13.5080    1.6620 H   0  0  0  0  0  0  0  0  0  0  0  0
  -15.2620   12.2100    1.3950 H   0  0  0  0  0  0  0  0  0  0  0  0
  -15.0560   13.6780   -1.1750 H   0  0  0  0  0  0  0  0  0  0  0  0
  -13.1400   14.8190    0.1080 H   0  0  0  0  0  0  0  0  0  0  0  0
  -13.6190   13.8690    1.5350 H   0  0  0  0  0  0  0  0  0  0  0  0
  -12.8490   12.7290   -1.2070 H   0  0  0  0  0  0  0  0  0  0  0  0
  -13.3810   11.7620    0.1890 H   0  0  0  0  0  0  0  0  0  0  0  0
  -11.5200   13.1010    1.3700 H   0  0  0  0  0  0  0  0  0  0  0  0
  -11.6270   10.6670    0.9560 H   0  0  0  0  0  0  0  0  0  0  0  0
  -10.9280   10.9910   -0.6490 H   0  0  0  0  0  0  0  0  0  0  0  0
   -9.1490   10.3380    1.0220 H   0  0  0  0  0  0  0  0  0  0  0  0
   -9.6030   11.7380    2.0240 H   0  0  0  0  0  0  0  0  0  0  0  0
   -6.8040   13.1570    0.3480 H   0  0  0  0  0  0  0  0  0  0  0  0
   -7.2770   12.1370    1.7280 H   0  0  0  0  0  0  0  0  0  0  0  0
   -6.5970   11.1240   -1.0930 H   0  0  0  0  0  0  0  0  0  0  0  0
   -7.0920   10.0980    0.2750 H   0  0  0  0  0  0  0  0  0  0  0  0
   -4.8830    9.0630    0.1830 H   0  0  0  0  0  0  0  0  0  0  0  0
   -4.4000   10.1570   -1.1350 H   0  0  0  0  0  0  0  0  0  0  0  0
   -3.0990    9.9690    1.6180 H   0  0  0  0  0  0  0  0  0  0  0  0
   -2.6380   11.1220    0.3420 H   0  0  0  0  0  0  0  0  0  0  0  0
   -0.4630   10.1560    0.2940 H   0  0  0  0  0  0  0  0  0  0  0  0
   -0.9090    8.9440    1.5200 H   0  0  0  0  0  0  0  0  0  0  0  0
    0.0180    8.3590   -1.3370 H   0  0  0  0  0  0  0  0  0  0  0  0
   -0.4870    7.1280   -0.1540 H   0  0  0  0  0  0  0  0  0  0  0  0
    1.8760    8.9700    0.1760 H   0  0  0  0  0  0  0  0  0  0  0  0
   -0.1590    6.5620    1.9490 H   0  0  0  0  0  0  0  0  0  0  0  0
    0.7550    4.7560    3.3680 H   0  0  0  0  0  0  0  0  0  0  0  0
    3.1970    4.3000    3.4020 H   0  0  0  0  0  0  0  0  0  0  0  0
    7.4330    6.2850    0.7880 H   0  0  0  0  0  0  0  0  0  0  0  0
    6.5340    9.2070    0.4050 H   0  0  0  0  0  0  0  0  0  0  0  0
    7.2990    8.5380    1.8660 H   0  0  0  0  0  0  0  0  0  0  0  0
    9.3150    7.9020    0.5030 H   0  0  0  0  0  0  0  0  0  0  0  0
    9.0120    9.6530    0.4140 H   0  0  0  0  0  0  0  0  0  0  0  0
    7.6080    7.5560   -2.9030 H   0  0  0  0  0  0  0  0  0  0  0  0
   -9.2810   14.0140    1.1580 H   0  0  0  0  0  0  0  0  0  0  0  0
   -8.5970   14.2550   -0.4680 H   0  0  0  0  0  0  0  0  0  0  0  0
  -10.6280   13.1320   -1.4620 H   0  0  0  0  0  0  0  0  0  0  0  0
  -11.0760   14.5790   -0.5270 H   0  0  0  0  0  0  0  0  0  0  0  0
  -15.7780   15.3690    1.2530 H   0  0  0  0  0  0  0  0  0  0  0  0
  -16.8920   14.9960   -0.0840 H   0  0  0  0  0  0  0  0  0  0  0  0
  -17.4800   17.0760    0.7260 H   0  0  0  0  0  0  0  0  0  0  0  0
  -18.4640   19.2540    1.3380 H   0  0  0  0  0  0  0  0  0  0  0  0
  -17.3910   21.3560    0.6020 H   0  0  0  0  0  0  0  0  0  0  0  0
  -15.3330   21.2760   -0.7640 H   0  0  0  0  0  0  0  0  0  0  0  0
  -14.3390   19.1060   -1.3810 H   0  0  0  0  0  0  0  0  0  0  0  0
  -18.6100   10.5230   -2.2100 H   0  0  0  0  0  0  0  0  0  0  0  0
  -23.7140   11.3010    2.8620 H   0  0  0  0  0  0  0  0  0  0  0  0
  -26.1370   11.6580    3.0860 H   0  0  0  0  0  0  0  0  0  0  0  0
  -28.2340   12.2670   -0.6730 H   0  0  0  0  0  0  0  0  0  0  0  0
  -29.0580   10.7010   -0.4820 H   0  0  0  0  0  0  0  0  0  0  0  0
  -30.7100   12.5750   -0.3140 H   0  0  0  0  0  0  0  0  0  0  0  0
  -29.7670   13.2910    1.0150 H   0  0  0  0  0  0  0  0  0  0  0  0
  -32.8600    9.7550    0.5400 H   0  0  0  0  0  0  0  0  0  0  0  0
  -33.7590   10.2020    2.0090 H   0  0  0  0  0  0  0  0  0  0  0  0
  1  2  1  0  0  0  0
  1 94  1  0  0  0  0
  1 95  1  0  0  0  0
  1 96  1  0  0  0  0
  2  3  1  0  0  0  0
  2  4  1  0  0  0  0
  2 93  1  0  0  0  0
  3 97  1  0  0  0  0
  3 98  1  0  0  0  0
  3 99  1  0  0  0  0
  4  5  1  0  0  0  0
  4100  1  0  0  0  0
  4101  1  0  0  0  0
  5  6  1  0  0  0  0
  5102  1  0  0  0  0
  5103  1  0  0  0  0
  6  7  1  0  0  0  0
  6 14  2  0  0  0  0
  7  8  1  0  0  0  0
  7 13  2  0  0  0  0
  8  9  2  0  0  0  0
  8104  1  0  0  0  0
  9 10  1  0  0  0  0
  9105  1  0  0  0  0
 10 11  1  0  0  0  0
 10 12  2  0  0  0  0
 12 13  1  0  0  0  0
 12106  1  0  0  0  0
 13107  1  0  0  0  0
 14 15  1  0  0  0  0
 14 93  1  0  0  0  0
 15 16  1  0  0  0  0
 15108  1  0  0  0  0
 15109  1  0  0  0  0
 16 17  1  0  0  0  0
 16 92  1  0  0  0  0
 16110  1  0  0  0  0
 17 18  1  0  0  0  0
 17111  1  0  0  0  0
 17112  1  0  0  0  0
 18 19  1  0  0  0  0
 18113  1  0  0  0  0
 18114  1  0  0  0  0
 19 20  1  0  0  0  0
 19 91  1  0  0  0  0
 20 21  1  0  0  0  0
 20 90  2  0  0  0  0
 21 22  2  0  0  0  0
 21115  1  0  0  0  0
 22 23  1  0  0  0  0
 22116  1  0  0  0  0
 23 24  1  0  0  0  0
 23 89  2  0  0  0  0
 24 25  2  0  0  0  0
 24 26  1  0  0  0  0
 26 27  1  0  0  0  0
 26117  1  0  0  0  0
 27 28  2  0  0  0  0
 27 29  2  0  0  0  0
 27 30  1  0  0  0  0
 30 31  1  0  0  0  0
 30 88  2  0  0  0  0
 31 32  2  0  0  0  0
 31118  1  0  0  0  0
 32 33  1  0  0  0  0
 32119  1  0  0  0  0
 33 34  1  0  0  0  0
 33 80  2  0  0  0  0
 34 35  1  0  0  0  0
 34120  1  0  0  0  0
 35 36  1  0  0  0  0
 35 72  1  0  0  0  0
 35121  1  0  0  0  0
 36 37  1  0  0  0  0
 36122  1  0  0  0  0
 36123  1  0  0  0  0
 37 38  1  0  0  0  0
 37124  1  0  0  0  0
 37125  1  0  0  0  0
 38 39  1  0  0  0  0
 38 71  1  0  0  0  0
 38126  1  0  0  0  0
 39 40  1  0  0  0  0
 39127  1  0  0  0  0
 39128  1  0  0  0  0
 40 41  1  0  0  0  0
 40129  1  0  0  0  0
 40130  1  0  0  0  0
 41 42  1  0  0  0  0
 41 70  1  0  0  0  0
 42 43  1  0  0  0  0
 42131  1  0  0  0  0
 42132  1  0  0  0  0
 43 44  1  0  0  0  0
 43133  1  0  0  0  0
 43134  1  0  0  0  0
 44 45  1  0  0  0  0
 45 46  1  0  0  0  0
 45135  1  0  0  0  0
 45136  1  0  0  0  0
 46 47  1  0  0  0  0
 46137  1  0  0  0  0
 46138  1  0  0  0  0
 47 48  1  0  0  0  0
 48 49  1  0  0  0  0
 48139  1  0  0  0  0
 48140  1  0  0  0  0
 49 50  1  0  0  0  0
 49141  1  0  0  0  0
 49142  1  0  0  0  0
 50 51  1  0  0  0  0
 50143  1  0  0  0  0
 51 52  1  0  0  0  0
 51 56  2  0  0  0  0
 52 53  2  0  0  0  0
 52144  1  0  0  0  0
 53 54  1  0  0  0  0
 53145  1  0  0  0  0
 54 55  2  0  0  0  0
 54146  1  0  0  0  0
 55 56  1  0  0  0  0
 55 68  1  0  0  0  0
 56 57  1  0  0  0  0
 57 58  2  0  0  0  0
 57 59  1  0  0  0  0
 59 60  1  0  0  0  0
 59 68  1  0  0  0  0
 60 61  1  0  0  0  0
 60 66  1  0  0  0  0
 60147  1  0  0  0  0
 61 62  1  0  0  0  0
 61148  1  0  0  0  0
 61149  1  0  0  0  0
 62 63  1  0  0  0  0
 62150  1  0  0  0  0
 62151  1  0  0  0  0
 63 64  2  0  0  0  0
 63 65  1  0  0  0  0
 65 66  1  0  0  0  0
 65152  1  0  0  0  0
 66 67  2  0  0  0  0
 68 69  2  0  0  0  0
 70 71  1  0  0  0  0
 70153  1  0  0  0  0
 70154  1  0  0  0  0
 71155  1  0  0  0  0
 71156  1  0  0  0  0
 72 73  1  0  0  0  0
 72157  1  0  0  0  0
 72158  1  0  0  0  0
 73 74  1  0  0  0  0
 74 75  1  0  0  0  0
 74 79  2  0  0  0  0
 75 76  2  0  0  0  0
 75159  1  0  0  0  0
 76 77  1  0  0  0  0
 76160  1  0  0  0  0
 77 78  2  0  0  0  0
 77161  1  0  0  0  0
 78 79  1  0  0  0  0
 78162  1  0  0  0  0
 79163  1  0  0  0  0
 80 81  1  0  0  0  0
 80 88  1  0  0  0  0
 81 82  2  0  0  0  0
 81 83  2  0  0  0  0
 81 84  1  0  0  0  0
 84 85  1  0  0  0  0
 84 86  1  0  0  0  0
 84 87  1  0  0  0  0
 88164  1  0  0  0  0
 89 90  1  0  0  0  0
 89165  1  0  0  0  0
 90166  1  0  0  0  0
 91 92  1  0  0  0  0
 91167  1  0  0  0  0
 91168  1  0  0  0  0
 92169  1  0  0  0  0
 92170  1  0  0  0  0
 93171  1  0  0  0  0
 93172  1  0  0  0  0
M  CHG  1  16   1
M  CHG  1  38   1
M  END
>  <Compound ID>
656

>  <Uniprot>
Q07817

>  <Target>
BCL-xL

>  <E3 ligase>
CRBN

>  <IC50 (nM, Cellular activities)>
41.4

>  <Assay (Cellular activities, IC50)>
Inhibit viability of MOLT-4 cells

>  <Article DOI>
10.1016/j.ejmech.2020.112186

>  <Molecular Weight>
1361.042

>  <Exact Mass>
1359.4546

>  <XLogP3>
9.8999996

>  <Heavy Atom Count>
93

>  <Ring Count>
10

>  <Hydrogen Bond Acceptor Count>
18

>  <Hydrogen Bond Donor Count>
4

>  <Rotatable Bond Count>
27

>  <Topological Polar Surface Area>
236.41

>  <Molecular Formula>
C66H77ClF3N9O11S3

>  <InChI>
InChI=1S/C66H77ClF3N9O11S3/c1-65(2)25-23-53(45-11-15-48(67)16-12-45)47(42-65)43-77-32-34-78(35-33-77)50-17-13-46(14-18-50)61(81)74-93(87,88)52-19-20-55(58(41-52)92(85,86)66(68,69)70)72-49(44-91-51-7-4-3-5-8-51)24-27-75-28-30-76(31-29-75)36-38-90-40-39-89-37-26-71-56-10-6-9-54-60(56)64(84)79(63(54)83)57-21-22-59(80)73-62(57)82/h3-20,41,49,57,71-72H,21-40,42-44H2,1-2H3,(H,74,81)(H,73,80,82)/t49-,57?/m1/s1

>  <InChI Key>
DYOGHZZIPKJNPD-LKVFYHIZSA-N

$$$$
657
  MOE2018           3D

179188  0  0  1  0  0  0  0  0999 V2000
  -34.9570  -12.9510    0.3670 C   0  0  0  0  0  0  0  0  0  0  0  0
  -33.7110  -12.2180   -0.1590 C   0  0  0  0  0  0  0  0  0  0  0  0
  -32.8700  -13.2610   -0.9250 C   0  0  0  0  0  0  0  0  0  0  0  0
  -34.1990  -11.0460   -1.0340 C   0  0  0  0  0  0  0  0  0  0  0  0
  -32.9970  -10.3290   -1.6830 C   0  0  0  0  0  0  0  0  0  0  0  0
  -31.9060  -10.0600   -0.6510 C   0  0  0  0  0  0  0  0  0  0  0  0
  -30.9090   -9.0840   -1.0800 C   0  0  0  0  0  0  0  0  0  0  0  0
  -30.7330   -7.8870   -0.3710 C   0  0  0  0  0  0  0  0  0  0  0  0
  -29.7620   -6.9700   -0.7560 C   0  0  0  0  0  0  0  0  0  0  0  0
  -28.9600   -7.2330   -1.8680 C   0  0  0  0  0  0  0  0  0  0  0  0
  -27.7360   -6.1010   -2.3390 Cl  0  0  0  0  0  0  0  0  0  0  0  0
  -29.1450   -8.4060   -2.6010 C   0  0  0  0  0  0  0  0  0  0  0  0
  -30.1170   -9.3200   -2.2120 C   0  0  0  0  0  0  0  0  0  0  0  0
  -31.8490  -10.6890    0.5510 C   0  0  0  0  0  0  0  0  0  0  0  0
  -30.7260  -10.4470    1.5370 C   0  0  0  0  0  0  0  0  0  0  0  0
  -29.8980  -11.6430    1.3860 N   0  3  0  0  0  0  0  0  0  0  0  0
  -28.9700  -11.4260    0.2240 C   0  0  0  0  0  0  0  0  0  0  0  0
  -28.1080  -12.7010    0.0250 C   0  0  0  0  0  0  0  0  0  0  0  0
  -27.3650  -12.9190    1.2900 N   0  0  0  0  0  0  0  0  0  0  0  0
  -26.1960  -13.6920    1.2630 C   0  0  0  0  0  0  0  0  0  0  0  0
  -25.9730  -14.6590    0.2740 C   0  0  0  0  0  0  0  0  0  0  0  0
  -24.8040  -15.4070    0.2920 C   0  0  0  0  0  0  0  0  0  0  0  0
  -23.8300  -15.2060    1.2880 C   0  0  0  0  0  0  0  0  0  0  0  0
  -22.5950  -15.9940    1.3370 C   0  0  0  0  0  0  0  0  0  0  0  0
  -21.6960  -15.8430    2.1480 O   0  0  0  0  0  0  0  0  0  0  0  0
  -22.3430  -16.9800    0.4680 N   0  0  0  0  0  0  0  0  0  0  0  0
  -21.4620  -16.4430   -0.8130 S   0  0  0  0  0  0  0  0  0  0  0  0
  -21.6340  -17.3710   -1.8650 O   0  0  0  0  0  0  0  0  0  0  0  0
  -21.8370  -15.1070   -1.0950 O   0  0  0  0  0  0  0  0  0  0  0  0
  -19.7360  -16.4740   -0.2630 C   0  0  0  0  0  0  0  0  0  0  0  0
  -19.1520  -15.3410    0.3090 C   0  0  0  0  0  0  0  0  0  0  0  0
  -17.8250  -15.3530    0.7130 C   0  0  0  0  0  0  0  0  0  0  0  0
  -17.0530  -16.5010    0.5320 C   0  0  0  0  0  0  0  0  0  0  0  0
  -15.7140  -16.4480    0.9090 N   0  0  0  0  0  0  0  0  0  0  0  0
  -14.7760  -16.1540   -0.1930 C   0  0  2  0  0  0  0  0  0  0  0  0
  -13.4390  -16.8160    0.2030 C   0  0  0  0  0  0  0  0  0  0  0  0
  -12.8350  -17.4090   -1.0810 C   0  0  0  0  0  0  0  0  0  0  0  0
  -11.6780  -18.1920   -0.6290 N   0  3  0  0  0  0  0  0  0  0  0  0
  -11.4670  -19.2870   -1.6180 C   0  0  0  0  0  0  0  0  0  0  0  0
  -10.3090  -20.1690   -1.0890 C   0  0  0  0  0  0  0  0  0  0  0  0
   -9.0820  -19.3270   -1.0170 N   0  0  0  0  0  0  0  0  0  0  0  0
   -7.9430  -20.1690   -0.5540 C   0  0  0  0  0  0  0  0  0  0  0  0
   -6.6460  -19.5490   -1.0970 C   0  0  0  0  0  0  0  0  0  0  0  0
   -5.6190  -20.3830   -0.5850 O   0  0  0  0  0  0  0  0  0  0  0  0
   -4.3200  -19.9950   -1.0110 C   0  0  0  0  0  0  0  0  0  0  0  0
   -3.2980  -20.9430   -0.3870 C   0  0  0  0  0  0  0  0  0  0  0  0
   -1.9860  -20.5470   -0.7650 O   0  0  0  0  0  0  0  0  0  0  0  0
   -0.9900  -21.3830   -0.1880 C   0  0  0  0  0  0  0  0  0  0  0  0
    0.3930  -20.9020   -0.6210 C   0  0  0  0  0  0  0  0  0  0  0  0
    1.3830  -21.6770    0.0440 O   0  0  0  0  0  0  0  0  0  0  0  0
    2.7050  -21.2970   -0.3150 C   0  0  0  0  0  0  0  0  0  0  0  0
    3.7050  -22.1550    0.4630 C   0  0  0  0  0  0  0  0  0  0  0  0
    5.0440  -21.6970    0.0600 N   0  0  0  0  0  0  0  0  0  0  0  0
    6.1920  -22.2530    0.6170 C   0  0  0  0  0  0  0  0  0  0  0  0
    6.2390  -23.5870    1.0510 C   0  0  0  0  0  0  0  0  0  0  0  0
    7.4170  -24.1060    1.5940 C   0  0  0  0  0  0  0  0  0  0  0  0
    8.5610  -23.3090    1.7090 C   0  0  0  0  0  0  0  0  0  0  0  0
    8.5010  -21.9870    1.2710 C   0  0  0  0  0  0  0  0  0  0  0  0
    7.3410  -21.4620    0.7360 C   0  0  0  0  0  0  0  0  0  0  0  0
    7.5860  -20.0860    0.4060 C   0  0  0  0  0  0  0  0  0  0  0  0
    6.8200  -19.2380   -0.0390 O   0  0  0  0  0  0  0  0  0  0  0  0
    8.9060  -19.8000    0.7280 N   0  0  0  0  0  0  0  0  0  0  0  0
    9.6390  -18.5540    0.4590 C   0  0  2  0  0  0  0  0  0  0  0  0
    9.0390  -17.4420    1.3580 C   0  0  0  0  0  0  0  0  0  0  0  0
    9.7550  -16.1240    0.9820 C   0  0  0  0  0  0  0  0  0  0  0  0
    9.4660  -15.8340   -0.4790 C   0  0  0  0  0  0  0  0  0  0  0  0
    9.2850  -14.7250   -0.9120 O   0  0  0  0  0  0  0  0  0  0  0  0
    9.4220  -16.8520   -1.3750 N   0  0  0  0  0  0  0  0  0  0  0  0
    9.5040  -18.1650   -1.0230 C   0  0  0  0  0  0  0  0  0  0  0  0
    9.5120  -18.9540   -1.9410 O   0  0  0  0  0  0  0  0  0  0  0  0
    9.4890  -20.9340    1.2620 C   0  0  0  0  0  0  0  0  0  0  0  0
   10.6460  -20.9470    1.6520 O   0  0  0  0  0  0  0  0  0  0  0  0
   -9.2810  -18.1640   -0.1000 C   0  0  0  0  0  0  0  0  0  0  0  0
  -10.4630  -17.3230   -0.6470 C   0  0  0  0  0  0  0  0  0  0  0  0
  -14.6820  -14.6230   -0.3410 C   0  0  0  0  0  0  0  0  0  0  0  0
  -13.4830  -14.2850   -1.6800 S   0  0  0  0  0  0  0  0  0  0  0  0
  -13.3220  -12.5430   -1.7810 C   0  0  0  0  0  0  0  0  0  0  0  0
  -12.3530  -12.0140   -2.6420 C   0  0  0  0  0  0  0  0  0  0  0  0
  -12.1810  -10.6390   -2.7490 C   0  0  0  0  0  0  0  0  0  0  0  0
  -12.9760   -9.7740   -2.0020 C   0  0  0  0  0  0  0  0  0  0  0  0
  -13.9460  -10.2900   -1.1490 C   0  0  0  0  0  0  0  0  0  0  0  0
  -14.1240  -11.6650   -1.0360 C   0  0  0  0  0  0  0  0  0  0  0  0
  -17.6190  -17.6690   -0.0020 C   0  0  0  0  0  0  0  0  0  0  0  0
  -16.6950  -19.2230   -0.0850 S   0  0  0  0  0  0  0  0  0  0  0  0
  -17.5580  -20.2080   -0.6460 O   0  0  0  0  0  0  0  0  0  0  0  0
  -15.4700  -19.0210   -0.8000 O   0  0  0  0  0  0  0  0  0  0  0  0
  -16.3450  -19.6340    1.7400 C   0  0  0  0  0  0  0  0  0  0  0  0
  -16.2560  -20.9590    1.9990 F   0  0  0  0  0  0  0  0  0  0  0  0
  -17.2950  -19.1840    2.5970 F   0  0  0  0  0  0  0  0  0  0  0  0
  -15.1790  -19.1300    2.2230 F   0  0  0  0  0  0  0  0  0  0  0  0
  -18.9550  -17.6260   -0.4160 C   0  0  0  0  0  0  0  0  0  0  0  0
  -24.0680  -14.2240    2.2640 C   0  0  0  0  0  0  0  0  0  0  0  0
  -25.2340  -13.4740    2.2540 C   0  0  0  0  0  0  0  0  0  0  0  0
  -28.2180  -13.0930    2.4910 C   0  0  0  0  0  0  0  0  0  0  0  0
  -29.0700  -11.8040    2.6240 C   0  0  0  0  0  0  0  0  0  0  0  0
  -32.9300  -11.6510    1.0460 C   0  0  0  0  0  0  0  0  0  0  0  0
  -35.5210  -13.3580   -0.4730 H   0  0  0  0  0  0  0  0  0  0  0  0
  -35.5840  -12.2510    0.9200 H   0  0  0  0  0  0  0  0  0  0  0  0
  -34.6500  -13.7630    1.0260 H   0  0  0  0  0  0  0  0  0  0  0  0
  -33.4450  -13.6430   -1.7680 H   0  0  0  0  0  0  0  0  0  0  0  0
  -32.6150  -14.0830   -0.2570 H   0  0  0  0  0  0  0  0  0  0  0  0
  -31.9560  -12.7930   -1.2910 H   0  0  0  0  0  0  0  0  0  0  0  0
  -34.8550  -11.4290   -1.8160 H   0  0  0  0  0  0  0  0  0  0  0  0
  -34.7480  -10.3380   -0.4140 H   0  0  0  0  0  0  0  0  0  0  0  0
  -33.3310   -9.3810   -2.1050 H   0  0  0  0  0  0  0  0  0  0  0  0
  -32.5920  -10.9570   -2.4760 H   0  0  0  0  0  0  0  0  0  0  0  0
  -31.3590   -7.6750    0.4830 H   0  0  0  0  0  0  0  0  0  0  0  0
  -29.6280   -6.0560   -0.1960 H   0  0  0  0  0  0  0  0  0  0  0  0
  -28.5340   -8.6030   -3.4690 H   0  0  0  0  0  0  0  0  0  0  0  0
  -30.2640  -10.2220   -2.7880 H   0  0  0  0  0  0  0  0  0  0  0  0
  -31.1080  -10.3600    2.5540 H   0  0  0  0  0  0  0  0  0  0  0  0
  -30.1660   -9.5470    1.2810 H   0  0  0  0  0  0  0  0  0  0  0  0
  -30.4750  -12.4590    1.2370 H   0  0  0  0  0  0  0  0  0  0  0  0
  -29.5510  -11.2330   -0.6780 H   0  0  0  0  0  0  0  0  0  0  0  0
  -28.3220  -10.5740    0.4280 H   0  0  0  0  0  0  0  0  0  0  0  0
  -27.4100  -12.5570   -0.8000 H   0  0  0  0  0  0  0  0  0  0  0  0
  -28.7480  -13.5570   -0.1860 H   0  0  0  0  0  0  0  0  0  0  0  0
  -26.7080  -14.8220   -0.5000 H   0  0  0  0  0  0  0  0  0  0  0  0
  -24.6390  -16.1550   -0.4700 H   0  0  0  0  0  0  0  0  0  0  0  0
  -22.6550  -17.9340    0.5840 H   0  0  0  0  0  0  0  0  0  0  0  0
  -19.7410  -14.4450    0.4380 H   0  0  0  0  0  0  0  0  0  0  0  0
  -17.3900  -14.4750    1.1670 H   0  0  0  0  0  0  0  0  0  0  0  0
  -15.4090  -16.5990    1.8600 H   0  0  0  0  0  0  0  0  0  0  0  0
  -15.0880  -16.5450   -1.1620 H   0  0  0  0  0  0  0  0  0  0  0  0
  -12.7640  -16.0720    0.6260 H   0  0  0  0  0  0  0  0  0  0  0  0
  -13.6140  -17.6050    0.9340 H   0  0  0  0  0  0  0  0  0  0  0  0
  -12.5200  -16.6150   -1.7580 H   0  0  0  0  0  0  0  0  0  0  0  0
  -13.5590  -18.0500   -1.5840 H   0  0  0  0  0  0  0  0  0  0  0  0
  -11.8360  -18.5520    0.3010 H   0  0  0  0  0  0  0  0  0  0  0  0
  -12.3750  -19.8820   -1.7150 H   0  0  0  0  0  0  0  0  0  0  0  0
  -11.2030  -18.8670   -2.5890 H   0  0  0  0  0  0  0  0  0  0  0  0
  -10.1430  -21.0070   -1.7670 H   0  0  0  0  0  0  0  0  0  0  0  0
  -10.5560  -20.5480   -0.0970 H   0  0  0  0  0  0  0  0  0  0  0  0
   -7.9160  -20.1890    0.5350 H   0  0  0  0  0  0  0  0  0  0  0  0
   -8.0550  -21.1850   -0.9330 H   0  0  0  0  0  0  0  0  0  0  0  0
   -6.5270  -18.5260   -0.7390 H   0  0  0  0  0  0  0  0  0  0  0  0
   -6.6420  -19.5550   -2.1870 H   0  0  0  0  0  0  0  0  0  0  0  0
   -4.2580  -20.0520   -2.0980 H   0  0  0  0  0  0  0  0  0  0  0  0
   -4.1180  -18.9740   -0.6890 H   0  0  0  0  0  0  0  0  0  0  0  0
   -3.4850  -21.9590   -0.7360 H   0  0  0  0  0  0  0  0  0  0  0  0
   -3.3880  -20.9100    0.6990 H   0  0  0  0  0  0  0  0  0  0  0  0
   -1.0650  -21.3410    0.8990 H   0  0  0  0  0  0  0  0  0  0  0  0
   -1.1390  -22.4100   -0.5230 H   0  0  0  0  0  0  0  0  0  0  0  0
    0.5130  -19.8510   -0.3570 H   0  0  0  0  0  0  0  0  0  0  0  0
    0.5000  -21.0200   -1.6990 H   0  0  0  0  0  0  0  0  0  0  0  0
    2.8500  -21.4480   -1.3850 H   0  0  0  0  0  0  0  0  0  0  0  0
    2.8610  -20.2460   -0.0720 H   0  0  0  0  0  0  0  0  0  0  0  0
    3.5750  -23.2080    0.2120 H   0  0  0  0  0  0  0  0  0  0  0  0
    3.5660  -22.0180    1.5350 H   0  0  0  0  0  0  0  0  0  0  0  0
    5.1320  -20.9670   -0.6320 H   0  0  0  0  0  0  0  0  0  0  0  0
    5.3630  -24.2130    0.9650 H   0  0  0  0  0  0  0  0  0  0  0  0
    7.4450  -25.1330    1.9280 H   0  0  0  0  0  0  0  0  0  0  0  0
    9.4720  -23.7100    2.1290 H   0  0  0  0  0  0  0  0  0  0  0  0
   10.6980  -18.6870    0.6780 H   0  0  0  0  0  0  0  0  0  0  0  0
    7.9680  -17.3510    1.1770 H   0  0  0  0  0  0  0  0  0  0  0  0
    9.2120  -17.6760    2.4090 H   0  0  0  0  0  0  0  0  0  0  0  0
   10.8290  -16.2310    1.1330 H   0  0  0  0  0  0  0  0  0  0  0  0
    9.3800  -15.3100    1.6020 H   0  0  0  0  0  0  0  0  0  0  0  0
    9.3230  -16.6240   -2.3540 H   0  0  0  0  0  0  0  0  0  0  0  0
   -9.5130  -18.5190    0.9040 H   0  0  0  0  0  0  0  0  0  0  0  0
   -8.3760  -17.5560   -0.0710 H   0  0  0  0  0  0  0  0  0  0  0  0
  -10.2510  -17.0010   -1.6670 H   0  0  0  0  0  0  0  0  0  0  0  0
  -10.6210  -16.4490   -0.0160 H   0  0  0  0  0  0  0  0  0  0  0  0
  -14.3360  -14.1780    0.5920 H   0  0  0  0  0  0  0  0  0  0  0  0
  -15.6580  -14.2120   -0.6000 H   0  0  0  0  0  0  0  0  0  0  0  0
  -11.7350  -12.6790   -3.2270 H   0  0  0  0  0  0  0  0  0  0  0  0
  -11.4290  -10.2400   -3.4130 H   0  0  0  0  0  0  0  0  0  0  0  0
  -12.8400   -8.7060   -2.0850 H   0  0  0  0  0  0  0  0  0  0  0  0
  -14.5650   -9.6190   -0.5710 H   0  0  0  0  0  0  0  0  0  0  0  0
  -14.8810  -12.0580   -0.3730 H   0  0  0  0  0  0  0  0  0  0  0  0
  -19.3950  -18.5040   -0.8650 H   0  0  0  0  0  0  0  0  0  0  0  0
  -23.3310  -14.0510    3.0340 H   0  0  0  0  0  0  0  0  0  0  0  0
  -25.3990  -12.7220    3.0110 H   0  0  0  0  0  0  0  0  0  0  0  0
  -28.8660  -13.9610    2.3690 H   0  0  0  0  0  0  0  0  0  0  0  0
  -27.5970  -13.2260    3.3770 H   0  0  0  0  0  0  0  0  0  0  0  0
  -28.4140  -10.9410    2.7410 H   0  0  0  0  0  0  0  0  0  0  0  0
  -29.7230  -11.8840    3.4930 H   0  0  0  0  0  0  0  0  0  0  0  0
  -32.4640  -12.4700    1.5940 H   0  0  0  0  0  0  0  0  0  0  0  0
  -33.6160  -11.1180    1.7040 H   0  0  0  0  0  0  0  0  0  0  0  0
  1  2  1  0  0  0  0
  1 97  1  0  0  0  0
  1 98  1  0  0  0  0
  1 99  1  0  0  0  0
  2  3  1  0  0  0  0
  2  4  1  0  0  0  0
  2 96  1  0  0  0  0
  3100  1  0  0  0  0
  3101  1  0  0  0  0
  3102  1  0  0  0  0
  4  5  1  0  0  0  0
  4103  1  0  0  0  0
  4104  1  0  0  0  0
  5  6  1  0  0  0  0
  5105  1  0  0  0  0
  5106  1  0  0  0  0
  6  7  1  0  0  0  0
  6 14  2  0  0  0  0
  7  8  1  0  0  0  0
  7 13  2  0  0  0  0
  8  9  2  0  0  0  0
  8107  1  0  0  0  0
  9 10  1  0  0  0  0
  9108  1  0  0  0  0
 10 11  1  0  0  0  0
 10 12  2  0  0  0  0
 12 13  1  0  0  0  0
 12109  1  0  0  0  0
 13110  1  0  0  0  0
 14 15  1  0  0  0  0
 14 96  1  0  0  0  0
 15 16  1  0  0  0  0
 15111  1  0  0  0  0
 15112  1  0  0  0  0
 16 17  1  0  0  0  0
 16 95  1  0  0  0  0
 16113  1  0  0  0  0
 17 18  1  0  0  0  0
 17114  1  0  0  0  0
 17115  1  0  0  0  0
 18 19  1  0  0  0  0
 18116  1  0  0  0  0
 18117  1  0  0  0  0
 19 20  1  0  0  0  0
 19 94  1  0  0  0  0
 20 21  1  0  0  0  0
 20 93  2  0  0  0  0
 21 22  2  0  0  0  0
 21118  1  0  0  0  0
 22 23  1  0  0  0  0
 22119  1  0  0  0  0
 23 24  1  0  0  0  0
 23 92  2  0  0  0  0
 24 25  2  0  0  0  0
 24 26  1  0  0  0  0
 26 27  1  0  0  0  0
 26120  1  0  0  0  0
 27 28  2  0  0  0  0
 27 29  2  0  0  0  0
 27 30  1  0  0  0  0
 30 31  1  0  0  0  0
 30 91  2  0  0  0  0
 31 32  2  0  0  0  0
 31121  1  0  0  0  0
 32 33  1  0  0  0  0
 32122  1  0  0  0  0
 33 34  1  0  0  0  0
 33 83  2  0  0  0  0
 34 35  1  0  0  0  0
 34123  1  0  0  0  0
 35 36  1  0  0  0  0
 35 75  1  0  0  0  0
 35124  1  0  0  0  0
 36 37  1  0  0  0  0
 36125  1  0  0  0  0
 36126  1  0  0  0  0
 37 38  1  0  0  0  0
 37127  1  0  0  0  0
 37128  1  0  0  0  0
 38 39  1  0  0  0  0
 38 74  1  0  0  0  0
 38129  1  0  0  0  0
 39 40  1  0  0  0  0
 39130  1  0  0  0  0
 39131  1  0  0  0  0
 40 41  1  0  0  0  0
 40132  1  0  0  0  0
 40133  1  0  0  0  0
 41 42  1  0  0  0  0
 41 73  1  0  0  0  0
 42 43  1  0  0  0  0
 42134  1  0  0  0  0
 42135  1  0  0  0  0
 43 44  1  0  0  0  0
 43136  1  0  0  0  0
 43137  1  0  0  0  0
 44 45  1  0  0  0  0
 45 46  1  0  0  0  0
 45138  1  0  0  0  0
 45139  1  0  0  0  0
 46 47  1  0  0  0  0
 46140  1  0  0  0  0
 46141  1  0  0  0  0
 47 48  1  0  0  0  0
 48 49  1  0  0  0  0
 48142  1  0  0  0  0
 48143  1  0  0  0  0
 49 50  1  0  0  0  0
 49144  1  0  0  0  0
 49145  1  0  0  0  0
 50 51  1  0  0  0  0
 51 52  1  0  0  0  0
 51146  1  0  0  0  0
 51147  1  0  0  0  0
 52 53  1  0  0  0  0
 52148  1  0  0  0  0
 52149  1  0  0  0  0
 53 54  1  0  0  0  0
 53150  1  0  0  0  0
 54 55  1  0  0  0  0
 54 59  2  0  0  0  0
 55 56  2  0  0  0  0
 55151  1  0  0  0  0
 56 57  1  0  0  0  0
 56152  1  0  0  0  0
 57 58  2  0  0  0  0
 57153  1  0  0  0  0
 58 59  1  0  0  0  0
 58 71  1  0  0  0  0
 59 60  1  0  0  0  0
 60 61  2  0  0  0  0
 60 62  1  0  0  0  0
 62 63  1  0  0  0  0
 62 71  1  0  0  0  0
 63 64  1  0  0  0  0
 63 69  1  0  0  0  0
 63154  1  0  0  0  0
 64 65  1  0  0  0  0
 64155  1  0  0  0  0
 64156  1  0  0  0  0
 65 66  1  0  0  0  0
 65157  1  0  0  0  0
 65158  1  0  0  0  0
 66 67  2  0  0  0  0
 66 68  1  0  0  0  0
 68 69  1  0  0  0  0
 68159  1  0  0  0  0
 69 70  2  0  0  0  0
 71 72  2  0  0  0  0
 73 74  1  0  0  0  0
 73160  1  0  0  0  0
 73161  1  0  0  0  0
 74162  1  0  0  0  0
 74163  1  0  0  0  0
 75 76  1  0  0  0  0
 75164  1  0  0  0  0
 75165  1  0  0  0  0
 76 77  1  0  0  0  0
 77 78  1  0  0  0  0
 77 82  2  0  0  0  0
 78 79  2  0  0  0  0
 78166  1  0  0  0  0
 79 80  1  0  0  0  0
 79167  1  0  0  0  0
 80 81  2  0  0  0  0
 80168  1  0  0  0  0
 81 82  1  0  0  0  0
 81169  1  0  0  0  0
 82170  1  0  0  0  0
 83 84  1  0  0  0  0
 83 91  1  0  0  0  0
 84 85  2  0  0  0  0
 84 86  2  0  0  0  0
 84 87  1  0  0  0  0
 87 88  1  0  0  0  0
 87 89  1  0  0  0  0
 87 90  1  0  0  0  0
 91171  1  0  0  0  0
 92 93  1  0  0  0  0
 92172  1  0  0  0  0
 93173  1  0  0  0  0
 94 95  1  0  0  0  0
 94174  1  0  0  0  0
 94175  1  0  0  0  0
 95176  1  0  0  0  0
 95177  1  0  0  0  0
 96178  1  0  0  0  0
 96179  1  0  0  0  0
M  CHG  1  16   1
M  CHG  1  38   1
M  END
>  <Compound ID>
657

>  <Uniprot>
Q07817

>  <Target>
BCL-xL

>  <E3 ligase>
CRBN

>  <IC50 (nM, Cellular activities)>
17.3/38.5/24.6

>  <Assay (Cellular activities, IC50)>
Inhibit viability of MOLT-4/RS4;11/H146 cells

>  <Article DOI>
10.1016/j.ejmech.2020.112186

>  <Molecular Weight>
1405.095

>  <Exact Mass>
1403.4807

>  <XLogP3>
9.75

>  <Heavy Atom Count>
96

>  <Ring Count>
10

>  <Hydrogen Bond Acceptor Count>
19

>  <Hydrogen Bond Donor Count>
4

>  <Rotatable Bond Count>
30

>  <Topological Polar Surface Area>
245.64

>  <Molecular Formula>
C68H81ClF3N9O12S3

>  <InChI>
InChI=1S/C68H81ClF3N9O12S3/c1-67(2)25-23-55(47-11-15-50(69)16-12-47)49(44-67)45-79-32-34-80(35-33-79)52-17-13-48(14-18-52)63(83)76-96(89,90)54-19-20-57(60(43-54)95(87,88)68(70,71)72)74-51(46-94-53-7-4-3-5-8-53)24-27-77-28-30-78(31-29-77)36-38-92-40-42-93-41-39-91-37-26-73-58-10-6-9-56-62(58)66(86)81(65(56)85)59-21-22-61(82)75-64(59)84/h3-20,43,51,59,73-74H,21-42,44-46H2,1-2H3,(H,76,83)(H,75,82,84)/t51-,59?/m1/s1

>  <InChI Key>
NCWWDSSVLZQYKO-HTEBOMBNSA-N

>  <DC50 (nM)>
4.5

>  <Assay (DC50/Dmax)>
Degradation of BCL-xL in MOLT-4 cells after 16 h treatment

$$$$
658
  MOE2018           3D

176185  0  0  1  0  0  0  0  0999 V2000
    4.2390    2.4630    4.1980 C   0  0  0  0  0  0  0  0  0  0  0  0
    3.9930    1.6480    2.9920 N   0  0  0  0  0  0  0  0  0  0  0  0
    2.6070    1.5870    2.4880 C   0  0  0  0  0  0  0  0  0  0  0  0
    2.5230    2.6710    1.3970 C   0  0  0  0  0  0  0  0  0  0  0  0
    1.1120    2.6490    0.7880 C   0  0  2  0  0  0  0  0  0  0  0  0
    0.8060    1.3480    0.0170 C   0  0  0  0  0  0  0  0  0  0  0  0
   -0.2120    0.3250    1.1480 S   0  0  0  0  0  0  0  0  0  0  0  0
   -0.2670   -1.2940    0.4830 C   0  0  0  0  0  0  0  0  0  0  0  0
   -0.9490   -2.2800    1.2050 C   0  0  0  0  0  0  0  0  0  0  0  0
   -1.0200   -3.5830    0.7270 C   0  0  0  0  0  0  0  0  0  0  0  0
   -0.4110   -3.9190   -0.4790 C   0  0  0  0  0  0  0  0  0  0  0  0
    0.2680   -2.9450   -1.2050 C   0  0  0  0  0  0  0  0  0  0  0  0
    0.3410   -1.6390   -0.7330 C   0  0  0  0  0  0  0  0  0  0  0  0
    1.1110    3.7460   -0.1840 N   0  0  0  0  0  0  0  0  0  0  0  0
   -0.0450    4.4890   -0.4740 C   0  0  0  0  0  0  0  0  0  0  0  0
   -1.3160    3.9990   -0.1510 C   0  0  0  0  0  0  0  0  0  0  0  0
   -2.4430    4.7630   -0.4140 C   0  0  0  0  0  0  0  0  0  0  0  0
   -2.3350    6.0200   -1.0140 C   0  0  0  0  0  0  0  0  0  0  0  0
   -3.8100    7.0220   -1.3250 S   0  0  0  0  0  0  0  0  0  0  0  0
   -3.4380    8.3800   -1.4540 O   0  0  0  0  0  0  0  0  0  0  0  0
   -4.7840    6.7360   -0.3370 O   0  0  0  0  0  0  0  0  0  0  0  0
   -4.3760    6.5250   -2.7880 N   0  0  0  0  0  0  0  0  0  0  0  0
   -5.1820    5.4640   -2.6690 C   0  0  0  0  0  0  0  0  0  0  0  0
   -4.5780    4.4070   -2.7510 O   0  0  0  0  0  0  0  0  0  0  0  0
   -6.6250    5.5990   -2.4480 C   0  0  0  0  0  0  0  0  0  0  0  0
   -7.4080    4.4550   -2.2190 C   0  0  0  0  0  0  0  0  0  0  0  0
   -8.7740    4.5560   -2.0030 C   0  0  0  0  0  0  0  0  0  0  0  0
   -9.3900    5.8120   -2.0070 C   0  0  0  0  0  0  0  0  0  0  0  0
  -10.7690    5.8770   -1.7710 N   0  0  0  0  0  0  0  0  0  0  0  0
  -11.5260    7.0430   -2.2850 C   0  0  0  0  0  0  0  0  0  0  0  0
  -13.0140    6.6080   -2.3570 C   0  0  0  0  0  0  0  0  0  0  0  0
  -13.4750    6.2350   -0.9800 N   0  3  0  0  0  0  0  0  0  0  0  0
  -14.8850    5.8510   -1.0550 C   0  0  0  0  0  0  0  0  0  0  0  0
  -15.3540    5.9270    0.3850 C   0  0  0  0  0  0  0  0  0  0  0  0
  -15.5500    4.8140    1.1380 C   0  0  0  0  0  0  0  0  0  0  0  0
  -15.3670    3.4650    0.6110 C   0  0  0  0  0  0  0  0  0  0  0  0
  -16.1950    2.9800   -0.4100 C   0  0  0  0  0  0  0  0  0  0  0  0
  -16.0020    1.7090   -0.9370 C   0  0  0  0  0  0  0  0  0  0  0  0
  -14.9800    0.8980   -0.4400 C   0  0  0  0  0  0  0  0  0  0  0  0
  -14.7240   -0.6810   -1.1070 Cl  0  0  0  0  0  0  0  0  0  0  0  0
  -14.1660    1.3580    0.5960 C   0  0  0  0  0  0  0  0  0  0  0  0
  -14.3630    2.6300    1.1200 C   0  0  0  0  0  0  0  0  0  0  0  0
  -16.0400    4.8600    2.5820 C   0  0  0  0  0  0  0  0  0  0  0  0
  -15.9010    6.2830    3.1630 C   0  0  0  0  0  0  0  0  0  0  0  0
  -16.4620    7.3170    2.1660 C   0  0  0  0  0  0  0  0  0  0  0  0
  -17.9380    7.0730    1.7880 C   0  0  0  0  0  0  0  0  0  0  0  0
  -16.4030    8.6960    2.8480 C   0  0  0  0  0  0  0  0  0  0  0  0
  -15.5640    7.3480    0.9100 C   0  0  0  0  0  0  0  0  0  0  0  0
  -12.6920    5.0320   -0.5330 C   0  0  0  0  0  0  0  0  0  0  0  0
  -11.1940    5.4140   -0.4250 C   0  0  0  0  0  0  0  0  0  0  0  0
   -8.6280    6.9640   -2.2430 C   0  0  0  0  0  0  0  0  0  0  0  0
   -7.2620    6.8540   -2.4600 C   0  0  0  0  0  0  0  0  0  0  0  0
   -1.0610    6.4940   -1.3460 C   0  0  0  0  0  0  0  0  0  0  0  0
    0.0890    5.7360   -1.1040 C   0  0  0  0  0  0  0  0  0  0  0  0
    1.7100    6.3570   -1.5990 S   0  0  0  0  0  0  0  0  0  0  0  0
    2.6580    6.0490   -0.5740 O   0  0  0  0  0  0  0  0  0  0  0  0
    1.5750    7.7420   -1.9080 O   0  0  0  0  0  0  0  0  0  0  0  0
    2.0880    5.3710   -3.1770 C   0  0  0  0  0  0  0  0  0  0  0  0
    1.0480    5.3320   -4.0530 F   0  0  0  0  0  0  0  0  0  0  0  0
    3.1240    5.8540   -3.9030 F   0  0  0  0  0  0  0  0  0  0  0  0
    2.3990    4.0710   -2.9720 F   0  0  0  0  0  0  0  0  0  0  0  0
    4.9510    0.9130    2.3830 C   0  0  0  0  0  0  0  0  0  0  0  0
    4.7150    0.2820    1.3570 O   0  0  0  0  0  0  0  0  0  0  0  0
    6.3630    0.8690    2.9850 C   0  0  0  0  0  0  0  0  0  0  0  0
    7.2980   -0.1500    2.2990 C   0  0  0  0  0  0  0  0  0  0  0  0
    8.6520   -0.1170    3.0400 C   0  0  0  0  0  0  0  0  0  0  0  0
    9.4900   -1.1320    2.4150 N   0  0  0  0  0  0  0  0  0  0  0  0
   10.3870   -0.9460    1.4480 C   0  0  0  0  0  0  0  0  0  0  0  0
   10.8890   -2.1690    1.1920 C   0  0  0  0  0  0  0  0  0  0  0  0
   11.9330   -2.5400    0.1580 C   0  0  0  0  0  0  0  0  0  0  0  0
   12.8720   -1.4220    0.0900 O   0  0  0  0  0  0  0  0  0  0  0  0
   14.0190   -1.6000   -0.7800 C   0  0  0  0  0  0  0  0  0  0  0  0
   15.0430   -0.5650   -0.3220 C   0  0  0  0  0  0  0  0  0  0  0  0
   16.2360   -0.7340   -1.0750 O   0  0  0  0  0  0  0  0  0  0  0  0
   17.2920    0.1000   -0.6140 C   0  0  0  0  0  0  0  0  0  0  0  0
   18.5510   -0.1810   -1.4340 C   0  0  0  0  0  0  0  0  0  0  0  0
   19.6200    0.6230   -0.8190 N   0  0  0  0  0  0  0  0  0  0  0  0
   20.3260    1.5840   -1.5360 C   0  0  0  0  0  0  0  0  0  0  0  0
   19.7110    2.3810   -2.5150 C   0  0  0  0  0  0  0  0  0  0  0  0
   20.4570    3.3400   -3.2060 C   0  0  0  0  0  0  0  0  0  0  0  0
   21.8160    3.5220   -2.9290 C   0  0  0  0  0  0  0  0  0  0  0  0
   22.4110    2.7300   -1.9470 C   0  0  0  0  0  0  0  0  0  0  0  0
   21.6840    1.7790   -1.2590 C   0  0  0  0  0  0  0  0  0  0  0  0
   22.5690    1.1230   -0.3370 C   0  0  0  0  0  0  0  0  0  0  0  0
   22.3500    0.1940    0.4330 O   0  0  0  0  0  0  0  0  0  0  0  0
   23.8250    1.6990   -0.4710 N   0  0  0  0  0  0  0  0  0  0  0  0
   25.0230    1.4160    0.3340 C   0  0  2  0  0  0  0  0  0  0  0  0
   25.4960   -0.0210   -0.0070 C   0  0  0  0  0  0  0  0  0  0  0  0
   26.6890   -0.3380    0.9250 C   0  0  0  0  0  0  0  0  0  0  0  0
   26.1940   -0.2720    2.3570 C   0  0  0  0  0  0  0  0  0  0  0  0
   26.5720   -1.0170    3.2240 O   0  0  0  0  0  0  0  0  0  0  0  0
   25.2950    0.6780    2.7200 N   0  0  0  0  0  0  0  0  0  0  0  0
   24.7000    1.5240    1.8340 C   0  0  0  0  0  0  0  0  0  0  0  0
   23.9680    2.3580    2.3170 O   0  0  0  0  0  0  0  0  0  0  0  0
   23.7640    2.6760   -1.4460 C   0  0  0  0  0  0  0  0  0  0  0  0
   24.7450    3.3230   -1.7790 O   0  0  0  0  0  0  0  0  0  0  0  0
   10.2910   -3.0760    1.9930 N   0  0  0  0  0  0  0  0  0  0  0  0
    9.4320   -2.4290    2.7440 N   0  0  0  0  0  0  0  0  0  0  0  0
    3.3150    2.9590    4.4960 H   0  0  0  0  0  0  0  0  0  0  0  0
    5.0000    3.2130    3.9810 H   0  0  0  0  0  0  0  0  0  0  0  0
    4.5840    1.8190    5.0070 H   0  0  0  0  0  0  0  0  0  0  0  0
    2.3970    0.6040    2.0660 H   0  0  0  0  0  0  0  0  0  0  0  0
    1.8990    1.7970    3.2900 H   0  0  0  0  0  0  0  0  0  0  0  0
    3.2610    2.4680    0.6210 H   0  0  0  0  0  0  0  0  0  0  0  0
    2.7180    3.6490    1.8360 H   0  0  0  0  0  0  0  0  0  0  0  0
    0.3690    2.7320    1.5810 H   0  0  0  0  0  0  0  0  0  0  0  0
    1.7310    0.8290   -0.2350 H   0  0  0  0  0  0  0  0  0  0  0  0
    0.2530    1.5690   -0.8960 H   0  0  0  0  0  0  0  0  0  0  0  0
   -1.4240   -2.0260    2.1410 H   0  0  0  0  0  0  0  0  0  0  0  0
   -1.5490   -4.3360    1.2920 H   0  0  0  0  0  0  0  0  0  0  0  0
   -0.4650   -4.9320   -0.8500 H   0  0  0  0  0  0  0  0  0  0  0  0
    0.7410   -3.2050   -2.1400 H   0  0  0  0  0  0  0  0  0  0  0  0
    0.8670   -0.8880   -1.3040 H   0  0  0  0  0  0  0  0  0  0  0  0
    1.9710    3.9750   -0.6620 H   0  0  0  0  0  0  0  0  0  0  0  0
   -1.4190    3.0250    0.3040 H   0  0  0  0  0  0  0  0  0  0  0  0
   -3.4180    4.3810   -0.1510 H   0  0  0  0  0  0  0  0  0  0  0  0
   -4.1440    6.9660   -3.6660 H   0  0  0  0  0  0  0  0  0  0  0  0
   -6.9390    3.4820   -2.2110 H   0  0  0  0  0  0  0  0  0  0  0  0
   -9.3620    3.6660   -1.8320 H   0  0  0  0  0  0  0  0  0  0  0  0
  -11.4140    7.8910   -1.6100 H   0  0  0  0  0  0  0  0  0  0  0  0
  -11.1660    7.3180   -3.2760 H   0  0  0  0  0  0  0  0  0  0  0  0
  -13.1130    5.7500   -3.0220 H   0  0  0  0  0  0  0  0  0  0  0  0
  -13.6190    7.4320   -2.7350 H   0  0  0  0  0  0  0  0  0  0  0  0
  -13.3470    7.0070   -0.3420 H   0  0  0  0  0  0  0  0  0  0  0  0
  -15.4440    6.5440   -1.6830 H   0  0  0  0  0  0  0  0  0  0  0  0
  -14.9920    4.8390   -1.4460 H   0  0  0  0  0  0  0  0  0  0  0  0
  -16.9920    3.6010   -0.7920 H   0  0  0  0  0  0  0  0  0  0  0  0
  -16.6410    1.3490   -1.7300 H   0  0  0  0  0  0  0  0  0  0  0  0
  -13.3840    0.7260    0.9900 H   0  0  0  0  0  0  0  0  0  0  0  0
  -13.7360    2.9790    1.9270 H   0  0  0  0  0  0  0  0  0  0  0  0
  -17.0880    4.5620    2.6130 H   0  0  0  0  0  0  0  0  0  0  0  0
  -15.4480    4.1690    3.1820 H   0  0  0  0  0  0  0  0  0  0  0  0
  -14.8480    6.4960    3.3490 H   0  0  0  0  0  0  0  0  0  0  0  0
  -16.4560    6.3460    4.0990 H   0  0  0  0  0  0  0  0  0  0  0  0
  -18.5470    7.0560    2.6920 H   0  0  0  0  0  0  0  0  0  0  0  0
  -18.0280    6.1170    1.2720 H   0  0  0  0  0  0  0  0  0  0  0  0
  -18.2820    7.8730    1.1330 H   0  0  0  0  0  0  0  0  0  0  0  0
  -17.0330    8.6890    3.7370 H   0  0  0  0  0  0  0  0  0  0  0  0
  -16.7600    9.4590    2.1560 H   0  0  0  0  0  0  0  0  0  0  0  0
  -15.3740    8.9170    3.1330 H   0  0  0  0  0  0  0  0  0  0  0  0
  -14.5990    7.7850    1.1660 H   0  0  0  0  0  0  0  0  0  0  0  0
  -16.0420    7.9510    0.1380 H   0  0  0  0  0  0  0  0  0  0  0  0
  -13.0550    4.7010    0.4400 H   0  0  0  0  0  0  0  0  0  0  0  0
  -12.8120    4.2280   -1.2590 H   0  0  0  0  0  0  0  0  0  0  0  0
  -10.6070    4.5460   -0.1240 H   0  0  0  0  0  0  0  0  0  0  0  0
  -11.0620    6.2130    0.3050 H   0  0  0  0  0  0  0  0  0  0  0  0
   -9.1020    7.9340   -2.2560 H   0  0  0  0  0  0  0  0  0  0  0  0
   -6.6790    7.7450   -2.6410 H   0  0  0  0  0  0  0  0  0  0  0  0
   -0.9630    7.4690   -1.8000 H   0  0  0  0  0  0  0  0  0  0  0  0
    6.8070    1.8600    2.8930 H   0  0  0  0  0  0  0  0  0  0  0  0
    6.2800    0.6040    4.0390 H   0  0  0  0  0  0  0  0  0  0  0  0
    7.4400    0.1220    1.2530 H   0  0  0  0  0  0  0  0  0  0  0  0
    6.8660   -1.1490    2.3590 H   0  0  0  0  0  0  0  0  0  0  0  0
    8.5090   -0.3450    4.0960 H   0  0  0  0  0  0  0  0  0  0  0  0
    9.1130    0.8660    2.9390 H   0  0  0  0  0  0  0  0  0  0  0  0
   10.6540   -0.0140    0.9720 H   0  0  0  0  0  0  0  0  0  0  0  0
   11.4620   -2.6950   -0.8130 H   0  0  0  0  0  0  0  0  0  0  0  0
   12.4530   -3.4500    0.4590 H   0  0  0  0  0  0  0  0  0  0  0  0
   14.4230   -2.6070   -0.6770 H   0  0  0  0  0  0  0  0  0  0  0  0
   13.7400   -1.4260   -1.8190 H   0  0  0  0  0  0  0  0  0  0  0  0
   15.2560   -0.7050    0.7380 H   0  0  0  0  0  0  0  0  0  0  0  0
   14.6470    0.4380   -0.4830 H   0  0  0  0  0  0  0  0  0  0  0  0
   17.0070    1.1460   -0.7300 H   0  0  0  0  0  0  0  0  0  0  0  0
   17.4880   -0.1080    0.4380 H   0  0  0  0  0  0  0  0  0  0  0  0
   18.4020    0.1170   -2.4720 H   0  0  0  0  0  0  0  0  0  0  0  0
   18.8020   -1.2410   -1.3920 H   0  0  0  0  0  0  0  0  0  0  0  0
   19.8480    0.4720    0.1530 H   0  0  0  0  0  0  0  0  0  0  0  0
   18.6610    2.2530   -2.7340 H   0  0  0  0  0  0  0  0  0  0  0  0
   19.9790    3.9470   -3.9610 H   0  0  0  0  0  0  0  0  0  0  0  0
   22.3930    4.2610   -3.4650 H   0  0  0  0  0  0  0  0  0  0  0  0
   25.8070    2.1390    0.1080 H   0  0  0  0  0  0  0  0  0  0  0  0
   24.6880   -0.7320    0.1650 H   0  0  0  0  0  0  0  0  0  0  0  0
   25.8110   -0.0740   -1.0490 H   0  0  0  0  0  0  0  0  0  0  0  0
   27.4820    0.3940    0.7730 H   0  0  0  0  0  0  0  0  0  0  0  0
   27.0710   -1.3360    0.7110 H   0  0  0  0  0  0  0  0  0  0  0  0
   25.0550    0.7620    3.6970 H   0  0  0  0  0  0  0  0  0  0  0  0
  1  2  1  0  0  0  0
  1 99  1  0  0  0  0
  1100  1  0  0  0  0
  1101  1  0  0  0  0
  2  3  1  0  0  0  0
  2 62  1  0  0  0  0
  3  4  1  0  0  0  0
  3102  1  0  0  0  0
  3103  1  0  0  0  0
  4  5  1  0  0  0  0
  4104  1  0  0  0  0
  4105  1  0  0  0  0
  5  6  1  0  0  0  0
  5 14  1  0  0  0  0
  5106  1  0  0  0  0
  6  7  1  0  0  0  0
  6107  1  0  0  0  0
  6108  1  0  0  0  0
  7  8  1  0  0  0  0
  8  9  1  0  0  0  0
  8 13  2  0  0  0  0
  9 10  2  0  0  0  0
  9109  1  0  0  0  0
 10 11  1  0  0  0  0
 10110  1  0  0  0  0
 11 12  2  0  0  0  0
 11111  1  0  0  0  0
 12 13  1  0  0  0  0
 12112  1  0  0  0  0
 13113  1  0  0  0  0
 14 15  1  0  0  0  0
 14114  1  0  0  0  0
 15 16  1  0  0  0  0
 15 54  2  0  0  0  0
 16 17  2  0  0  0  0
 16115  1  0  0  0  0
 17 18  1  0  0  0  0
 17116  1  0  0  0  0
 18 19  1  0  0  0  0
 18 53  2  0  0  0  0
 19 20  2  0  0  0  0
 19 21  2  0  0  0  0
 19 22  1  0  0  0  0
 22 23  1  0  0  0  0
 22117  1  0  0  0  0
 23 24  2  0  0  0  0
 23 25  1  0  0  0  0
 25 26  1  0  0  0  0
 25 52  2  0  0  0  0
 26 27  2  0  0  0  0
 26118  1  0  0  0  0
 27 28  1  0  0  0  0
 27119  1  0  0  0  0
 28 29  1  0  0  0  0
 28 51  2  0  0  0  0
 29 30  1  0  0  0  0
 29 50  1  0  0  0  0
 30 31  1  0  0  0  0
 30120  1  0  0  0  0
 30121  1  0  0  0  0
 31 32  1  0  0  0  0
 31122  1  0  0  0  0
 31123  1  0  0  0  0
 32 33  1  0  0  0  0
 32 49  1  0  0  0  0
 32124  1  0  0  0  0
 33 34  1  0  0  0  0
 33125  1  0  0  0  0
 33126  1  0  0  0  0
 34 35  2  0  0  0  0
 34 48  1  0  0  0  0
 35 36  1  0  0  0  0
 35 43  1  0  0  0  0
 36 37  1  0  0  0  0
 36 42  2  0  0  0  0
 37 38  2  0  0  0  0
 37127  1  0  0  0  0
 38 39  1  0  0  0  0
 38128  1  0  0  0  0
 39 40  1  0  0  0  0
 39 41  2  0  0  0  0
 41 42  1  0  0  0  0
 41129  1  0  0  0  0
 42130  1  0  0  0  0
 43 44  1  0  0  0  0
 43131  1  0  0  0  0
 43132  1  0  0  0  0
 44 45  1  0  0  0  0
 44133  1  0  0  0  0
 44134  1  0  0  0  0
 45 46  1  0  0  0  0
 45 47  1  0  0  0  0
 45 48  1  0  0  0  0
 46135  1  0  0  0  0
 46136  1  0  0  0  0
 46137  1  0  0  0  0
 47138  1  0  0  0  0
 47139  1  0  0  0  0
 47140  1  0  0  0  0
 48141  1  0  0  0  0
 48142  1  0  0  0  0
 49 50  1  0  0  0  0
 49143  1  0  0  0  0
 49144  1  0  0  0  0
 50145  1  0  0  0  0
 50146  1  0  0  0  0
 51 52  1  0  0  0  0
 51147  1  0  0  0  0
 52148  1  0  0  0  0
 53 54  1  0  0  0  0
 53149  1  0  0  0  0
 54 55  1  0  0  0  0
 55 56  2  0  0  0  0
 55 57  2  0  0  0  0
 55 58  1  0  0  0  0
 58 59  1  0  0  0  0
 58 60  1  0  0  0  0
 58 61  1  0  0  0  0
 62 63  2  0  0  0  0
 62 64  1  0  0  0  0
 64 65  1  0  0  0  0
 64150  1  0  0  0  0
 64151  1  0  0  0  0
 65 66  1  0  0  0  0
 65152  1  0  0  0  0
 65153  1  0  0  0  0
 66 67  1  0  0  0  0
 66154  1  0  0  0  0
 66155  1  0  0  0  0
 67 68  1  0  0  0  0
 67 98  1  0  0  0  0
 68 69  2  0  0  0  0
 68156  1  0  0  0  0
 69 70  1  0  0  0  0
 69 97  1  0  0  0  0
 70 71  1  0  0  0  0
 70157  1  0  0  0  0
 70158  1  0  0  0  0
 71 72  1  0  0  0  0
 72 73  1  0  0  0  0
 72159  1  0  0  0  0
 72160  1  0  0  0  0
 73 74  1  0  0  0  0
 73161  1  0  0  0  0
 73162  1  0  0  0  0
 74 75  1  0  0  0  0
 75 76  1  0  0  0  0
 75163  1  0  0  0  0
 75164  1  0  0  0  0
 76 77  1  0  0  0  0
 76165  1  0  0  0  0
 76166  1  0  0  0  0
 77 78  1  0  0  0  0
 77167  1  0  0  0  0
 78 79  1  0  0  0  0
 78 83  2  0  0  0  0
 79 80  2  0  0  0  0
 79168  1  0  0  0  0
 80 81  1  0  0  0  0
 80169  1  0  0  0  0
 81 82  2  0  0  0  0
 81170  1  0  0  0  0
 82 83  1  0  0  0  0
 82 95  1  0  0  0  0
 83 84  1  0  0  0  0
 84 85  2  0  0  0  0
 84 86  1  0  0  0  0
 86 87  1  0  0  0  0
 86 95  1  0  0  0  0
 87 88  1  0  0  0  0
 87 93  1  0  0  0  0
 87171  1  0  0  0  0
 88 89  1  0  0  0  0
 88172  1  0  0  0  0
 88173  1  0  0  0  0
 89 90  1  0  0  0  0
 89174  1  0  0  0  0
 89175  1  0  0  0  0
 90 91  2  0  0  0  0
 90 92  1  0  0  0  0
 92 93  1  0  0  0  0
 92176  1  0  0  0  0
 93 94  2  0  0  0  0
 95 96  2  0  0  0  0
 97 98  2  0  0  0  0
M  CHG  1  32   1
M  END
>  <Compound ID>
658

>  <Uniprot>
Q07817

>  <Target>
BCL-xL

>  <E3 ligase>
CRBN

>  <IC50 (nM, Cellular activities)>
770

>  <Assay (Cellular activities, IC50)>
Inhibit viability of MOLT-4 cells

>  <Article DOI>
10.1016/j.ejmech.2020.112186

>  <Molecular Weight>
1429.077

>  <Exact Mass>
1427.4556

>  <XLogP3>
9.0699997

>  <Heavy Atom Count>
98

>  <Ring Count>
10

>  <Hydrogen Bond Acceptor Count>
20

>  <Hydrogen Bond Donor Count>
4

>  <Rotatable Bond Count>
30

>  <Topological Polar Surface Area>
280.95001

>  <Molecular Formula>
C68H77ClF3N11O12S3

>  <InChI>
InChI=1S/C68H77ClF3N11O12S3/c1-67(2)28-26-54(45-14-18-48(69)19-15-45)47(40-67)41-80-32-34-81(35-33-80)51-20-16-46(17-21-51)63(86)77-98(92,93)53-22-23-56(59(39-53)97(90,91)68(70,71)72)74-49(44-96-52-9-5-4-6-10-52)27-31-79(3)61(85)13-8-30-82-42-50(76-78-82)43-95-38-37-94-36-29-73-57-12-7-11-55-62(57)66(89)83(65(55)88)58-24-25-60(84)75-64(58)87/h4-7,9-12,14-23,39,42,49,58,73-74H,8,13,24-38,40-41,43-44H2,1-3H3,(H,77,86)(H,75,84,87)/t49-,58?/m1/s1

>  <InChI Key>
CUFRZHWTZNFONB-BAHIOSHZSA-N

$$$$
659
  MOE2018           3D

183192  0  0  1  0  0  0  0  0999 V2000
   -4.6170    6.5060   -4.2500 C   0  0  0  0  0  0  0  0  0  0  0  0
   -3.5100    7.0200   -3.4120 N   0  0  0  0  0  0  0  0  0  0  0  0
   -3.8110    8.1550   -2.5200 C   0  0  0  0  0  0  0  0  0  0  0  0
   -4.3930    7.5230   -1.2380 C   0  0  0  0  0  0  0  0  0  0  0  0
   -4.7500    8.6510   -0.2500 C   0  0  2  0  0  0  0  0  0  0  0  0
   -3.4840    9.3230    0.3190 C   0  0  0  0  0  0  0  0  0  0  0  0
   -4.0600   10.7640    1.2890 S   0  0  0  0  0  0  0  0  0  0  0  0
   -3.7610   12.0790    0.1810 C   0  0  0  0  0  0  0  0  0  0  0  0
   -2.4680   12.3340   -0.2930 C   0  0  0  0  0  0  0  0  0  0  0  0
   -2.2460   13.3730   -1.1890 C   0  0  0  0  0  0  0  0  0  0  0  0
   -3.3060   14.1690   -1.6160 C   0  0  0  0  0  0  0  0  0  0  0  0
   -4.5910   13.9260   -1.1390 C   0  0  0  0  0  0  0  0  0  0  0  0
   -4.8200   12.8890   -0.2420 C   0  0  0  0  0  0  0  0  0  0  0  0
   -5.4440    8.0710    0.9230 N   0  0  0  0  0  0  0  0  0  0  0  0
   -6.6720    7.4110    0.7530 C   0  0  0  0  0  0  0  0  0  0  0  0
   -6.5970    6.0340    0.5360 C   0  0  0  0  0  0  0  0  0  0  0  0
   -7.7490    5.2860    0.3510 C   0  0  0  0  0  0  0  0  0  0  0  0
   -9.0050    5.8930    0.3950 C   0  0  0  0  0  0  0  0  0  0  0  0
  -10.5050    4.9230    0.1070 S   0  0  0  0  0  0  0  0  0  0  0  0
  -11.5530    5.7840   -0.2930 O   0  0  0  0  0  0  0  0  0  0  0  0
  -10.2060    3.8590   -0.7780 O   0  0  0  0  0  0  0  0  0  0  0  0
  -10.9140    4.2970    1.5740 N   0  0  0  0  0  0  0  0  0  0  0  0
  -10.3270    3.1150    1.7960 C   0  0  0  0  0  0  0  0  0  0  0  0
   -9.2520    3.2300    2.3610 O   0  0  0  0  0  0  0  0  0  0  0  0
  -10.9360    1.8460    1.3840 C   0  0  0  0  0  0  0  0  0  0  0  0
  -10.2730    0.6330    1.6440 C   0  0  0  0  0  0  0  0  0  0  0  0
  -10.8200   -0.5820    1.2560 C   0  0  0  0  0  0  0  0  0  0  0  0
  -12.0520   -0.6070    0.5890 C   0  0  0  0  0  0  0  0  0  0  0  0
  -12.6330   -1.8060    0.1570 N   0  0  0  0  0  0  0  0  0  0  0  0
  -12.3080   -3.0590    0.8800 C   0  0  0  0  0  0  0  0  0  0  0  0
  -13.4400   -4.0670    0.5520 C   0  0  0  0  0  0  0  0  0  0  0  0
  -13.4760   -4.2940   -0.9350 N   0  3  0  0  0  0  0  0  0  0  0  0
  -14.5420   -5.2580   -1.2210 C   0  0  0  0  0  0  0  0  0  0  0  0
  -13.9670   -6.5970   -0.7970 C   0  0  0  0  0  0  0  0  0  0  0  0
  -14.3810   -7.2250    0.3320 C   0  0  0  0  0  0  0  0  0  0  0  0
  -15.4220   -6.6800    1.1960 C   0  0  0  0  0  0  0  0  0  0  0  0
  -16.7400   -6.5620    0.7330 C   0  0  0  0  0  0  0  0  0  0  0  0
  -17.7280   -6.0110    1.5400 C   0  0  0  0  0  0  0  0  0  0  0  0
  -17.4120   -5.5790    2.8290 C   0  0  0  0  0  0  0  0  0  0  0  0
  -18.6380   -4.8760    3.8310 Cl  0  0  0  0  0  0  0  0  0  0  0  0
  -16.1100   -5.7150    3.3120 C   0  0  0  0  0  0  0  0  0  0  0  0
  -15.1250   -6.2660    2.5010 C   0  0  0  0  0  0  0  0  0  0  0  0
  -13.8490   -8.5850    0.7750 C   0  0  0  0  0  0  0  0  0  0  0  0
  -12.5510   -8.9340    0.0210 C   0  0  0  0  0  0  0  0  0  0  0  0
  -12.7310   -8.6770   -1.4890 C   0  0  0  0  0  0  0  0  0  0  0  0
  -13.8980   -9.4670   -2.1170 C   0  0  0  0  0  0  0  0  0  0  0  0
  -11.4480   -9.1520   -2.1940 C   0  0  0  0  0  0  0  0  0  0  0  0
  -12.8940   -7.1590   -1.7300 C   0  0  0  0  0  0  0  0  0  0  0  0
  -13.8410   -2.9980   -1.5950 C   0  0  0  0  0  0  0  0  0  0  0  0
  -12.7280   -1.9530   -1.3160 C   0  0  0  0  0  0  0  0  0  0  0  0
  -12.7320    0.5880    0.3350 C   0  0  0  0  0  0  0  0  0  0  0  0
  -12.1810    1.7980    0.7290 C   0  0  0  0  0  0  0  0  0  0  0  0
   -9.0750    7.2700    0.6300 C   0  0  0  0  0  0  0  0  0  0  0  0
   -7.9270    8.0470    0.8280 C   0  0  0  0  0  0  0  0  0  0  0  0
   -8.1240    9.8160    1.1500 S   0  0  0  0  0  0  0  0  0  0  0  0
   -9.5010   10.1430    0.9830 O   0  0  0  0  0  0  0  0  0  0  0  0
   -7.2280   10.5430    0.3160 O   0  0  0  0  0  0  0  0  0  0  0  0
   -7.6410    9.9860    2.9760 C   0  0  0  0  0  0  0  0  0  0  0  0
   -7.7280   11.2440    3.4670 F   0  0  0  0  0  0  0  0  0  0  0  0
   -6.3780    9.5950    3.2560 F   0  0  0  0  0  0  0  0  0  0  0  0
   -8.4090    9.2390    3.8090 F   0  0  0  0  0  0  0  0  0  0  0  0
   -2.3000    6.4240   -3.5180 C   0  0  0  0  0  0  0  0  0  0  0  0
   -2.1250    5.4800   -4.2820 O   0  0  0  0  0  0  0  0  0  0  0  0
   -1.1200    6.9280   -2.6710 C   0  0  0  0  0  0  0  0  0  0  0  0
    0.1460    6.0560   -2.7940 C   0  0  0  0  0  0  0  0  0  0  0  0
    1.2300    6.6750   -1.8860 C   0  0  0  0  0  0  0  0  0  0  0  0
    2.4010    5.8180   -2.0070 N   0  0  0  0  0  0  0  0  0  0  0  0
    2.7190    4.7830   -1.2310 C   0  0  0  0  0  0  0  0  0  0  0  0
    3.8560    4.2870   -1.7520 C   0  0  0  0  0  0  0  0  0  0  0  0
    4.6370    3.0900   -1.2490 C   0  0  0  0  0  0  0  0  0  0  0  0
    5.4680    3.5610   -0.1430 O   0  0  0  0  0  0  0  0  0  0  0  0
    6.5850    4.4260   -0.5000 C   0  0  0  0  0  0  0  0  0  0  0  0
    7.4610    4.5010    0.7470 C   0  0  0  0  0  0  0  0  0  0  0  0
    8.6890    5.1300    0.4040 O   0  0  0  0  0  0  0  0  0  0  0  0
    9.6030    5.1850    1.4890 C   0  0  0  0  0  0  0  0  0  0  0  0
   10.9300    5.7330    0.9720 C   0  0  0  0  0  0  0  0  0  0  0  0
   11.9570    5.4570    1.9200 O   0  0  0  0  0  0  0  0  0  0  0  0
   13.2650    5.8100    1.4740 C   0  0  0  0  0  0  0  0  0  0  0  0
   13.8560    4.7250    0.5640 C   0  0  0  0  0  0  0  0  0  0  0  0
   15.1940    5.1930    0.1740 N   0  0  0  0  0  0  0  0  0  0  0  0
   16.0230    4.4120   -0.6280 C   0  0  0  0  0  0  0  0  0  0  0  0
   15.5110    3.5330   -1.5960 C   0  0  0  0  0  0  0  0  0  0  0  0
   16.3810    2.7760   -2.3850 C   0  0  0  0  0  0  0  0  0  0  0  0
   17.7660    2.8850   -2.2250 C   0  0  0  0  0  0  0  0  0  0  0  0
   18.2610    3.7640   -1.2630 C   0  0  0  0  0  0  0  0  0  0  0  0
   17.4110    4.5160   -0.4760 C   0  0  0  0  0  0  0  0  0  0  0  0
   18.2140    5.3010    0.4200 C   0  0  0  0  0  0  0  0  0  0  0  0
   17.8680    6.0680    1.3120 O   0  0  0  0  0  0  0  0  0  0  0  0
   19.5480    5.0220    0.1530 N   0  0  0  0  0  0  0  0  0  0  0  0
   20.7310    5.6840    0.7240 C   0  0  2  0  0  0  0  0  0  0  0  0
   20.8080    5.3260    2.2310 C   0  0  0  0  0  0  0  0  0  0  0  0
   22.0110    6.1030    2.8180 C   0  0  0  0  0  0  0  0  0  0  0  0
   21.7480    7.5870    2.6350 C   0  0  0  0  0  0  0  0  0  0  0  0
   22.0710    8.4210    3.4410 O   0  0  0  0  0  0  0  0  0  0  0  0
   21.1360    8.0340    1.5080 N   0  0  0  0  0  0  0  0  0  0  0  0
   20.6270    7.2090    0.5530 C   0  0  0  0  0  0  0  0  0  0  0  0
   20.1540    7.7580   -0.4170 O   0  0  0  0  0  0  0  0  0  0  0  0
   19.6100    4.0880   -0.8640 C   0  0  0  0  0  0  0  0  0  0  0  0
   20.6720    3.6530   -1.2810 O   0  0  0  0  0  0  0  0  0  0  0  0
    4.2140    5.0200   -2.8280 N   0  0  0  0  0  0  0  0  0  0  0  0
    3.3120    5.9620   -2.9770 N   0  0  0  0  0  0  0  0  0  0  0  0
   -5.5200    7.0840   -4.0530 H   0  0  0  0  0  0  0  0  0  0  0  0
   -4.7970    5.4580   -4.0110 H   0  0  0  0  0  0  0  0  0  0  0  0
   -4.3490    6.5980   -5.3020 H   0  0  0  0  0  0  0  0  0  0  0  0
   -2.9030    8.7130   -2.2920 H   0  0  0  0  0  0  0  0  0  0  0  0
   -4.5400    8.8210   -2.9820 H   0  0  0  0  0  0  0  0  0  0  0  0
   -3.6540    6.8610   -0.7870 H   0  0  0  0  0  0  0  0  0  0  0  0
   -5.2890    6.9530   -1.4840 H   0  0  0  0  0  0  0  0  0  0  0  0
   -5.3610    9.3710   -0.7940 H   0  0  0  0  0  0  0  0  0  0  0  0
   -2.8330    9.6500   -0.4920 H   0  0  0  0  0  0  0  0  0  0  0  0
   -2.9430    8.6270    0.9610 H   0  0  0  0  0  0  0  0  0  0  0  0
   -1.6420   11.7220    0.0380 H   0  0  0  0  0  0  0  0  0  0  0  0
   -1.2480   13.5640   -1.5550 H   0  0  0  0  0  0  0  0  0  0  0  0
   -3.1310   14.9730   -2.3160 H   0  0  0  0  0  0  0  0  0  0  0  0
   -5.4130   14.5450   -1.4670 H   0  0  0  0  0  0  0  0  0  0  0  0
   -5.8180   12.7080    0.1290 H   0  0  0  0  0  0  0  0  0  0  0  0
   -5.0350    8.1500    1.8430 H   0  0  0  0  0  0  0  0  0  0  0  0
   -5.6330    5.5470    0.5120 H   0  0  0  0  0  0  0  0  0  0  0  0
   -7.6740    4.2240    0.1710 H   0  0  0  0  0  0  0  0  0  0  0  0
  -11.5340    4.7510    2.2290 H   0  0  0  0  0  0  0  0  0  0  0  0
   -9.3210    0.6470    2.1550 H   0  0  0  0  0  0  0  0  0  0  0  0
  -10.2990   -1.5040    1.4670 H   0  0  0  0  0  0  0  0  0  0  0  0
  -11.3480   -3.4490    0.5430 H   0  0  0  0  0  0  0  0  0  0  0  0
  -12.2680   -2.8740    1.9530 H   0  0  0  0  0  0  0  0  0  0  0  0
  -14.3970   -3.6630    0.8840 H   0  0  0  0  0  0  0  0  0  0  0  0
  -13.2480   -5.0110    1.0620 H   0  0  0  0  0  0  0  0  0  0  0  0
  -12.5840   -4.6310   -1.2680 H   0  0  0  0  0  0  0  0  0  0  0  0
  -15.4380   -5.0240   -0.6460 H   0  0  0  0  0  0  0  0  0  0  0  0
  -14.7830   -5.2610   -2.2840 H   0  0  0  0  0  0  0  0  0  0  0  0
  -16.9900   -6.9030   -0.2610 H   0  0  0  0  0  0  0  0  0  0  0  0
  -18.7380   -5.9170    1.1700 H   0  0  0  0  0  0  0  0  0  0  0  0
  -15.8680   -5.3930    4.3140 H   0  0  0  0  0  0  0  0  0  0  0  0
  -14.1200   -6.3760    2.8810 H   0  0  0  0  0  0  0  0  0  0  0  0
  -13.6450   -8.5580    1.8450 H   0  0  0  0  0  0  0  0  0  0  0  0
  -14.6000   -9.3480    0.5670 H   0  0  0  0  0  0  0  0  0  0  0  0
  -12.3120   -9.9850    0.1820 H   0  0  0  0  0  0  0  0  0  0  0  0
  -11.7370   -8.3140    0.3980 H   0  0  0  0  0  0  0  0  0  0  0  0
  -13.7570  -10.5320   -1.9320 H   0  0  0  0  0  0  0  0  0  0  0  0
  -13.9230   -9.2850   -3.1910 H   0  0  0  0  0  0  0  0  0  0  0  0
  -14.8380   -9.1420   -1.6710 H   0  0  0  0  0  0  0  0  0  0  0  0
  -11.3200  -10.2220   -2.0330 H   0  0  0  0  0  0  0  0  0  0  0  0
  -10.5900   -8.6180   -1.7860 H   0  0  0  0  0  0  0  0  0  0  0  0
  -11.5260   -8.9520   -3.2630 H   0  0  0  0  0  0  0  0  0  0  0  0
  -13.1890   -6.9870   -2.7650 H   0  0  0  0  0  0  0  0  0  0  0  0
  -11.9460   -6.6580   -1.5340 H   0  0  0  0  0  0  0  0  0  0  0  0
  -13.9370   -3.1500   -2.6700 H   0  0  0  0  0  0  0  0  0  0  0  0
  -14.7880   -2.6380   -1.1930 H   0  0  0  0  0  0  0  0  0  0  0  0
  -12.9880   -0.9980   -1.7720 H   0  0  0  0  0  0  0  0  0  0  0  0
  -11.7770   -2.3010   -1.7200 H   0  0  0  0  0  0  0  0  0  0  0  0
  -13.6870    0.5690   -0.1690 H   0  0  0  0  0  0  0  0  0  0  0  0
  -12.7140    2.7160    0.5310 H   0  0  0  0  0  0  0  0  0  0  0  0
  -10.0430    7.7480    0.6600 H   0  0  0  0  0  0  0  0  0  0  0  0
   -0.8740    7.9400   -2.9910 H   0  0  0  0  0  0  0  0  0  0  0  0
   -1.4280    6.9430   -1.6250 H   0  0  0  0  0  0  0  0  0  0  0  0
    0.4900    6.0440   -3.8280 H   0  0  0  0  0  0  0  0  0  0  0  0
   -0.0710    5.0380   -2.4720 H   0  0  0  0  0  0  0  0  0  0  0  0
    0.8870    6.7010   -0.8520 H   0  0  0  0  0  0  0  0  0  0  0  0
    1.4670    7.6870   -2.2160 H   0  0  0  0  0  0  0  0  0  0  0  0
    2.1800    4.4200   -0.3690 H   0  0  0  0  0  0  0  0  0  0  0  0
    5.2640    2.6900   -2.0460 H   0  0  0  0  0  0  0  0  0  0  0  0
    3.9530    2.3150   -0.9010 H   0  0  0  0  0  0  0  0  0  0  0  0
    7.1450    4.0010   -1.3330 H   0  0  0  0  0  0  0  0  0  0  0  0
    6.2260    5.4180   -0.7730 H   0  0  0  0  0  0  0  0  0  0  0  0
    7.6560    3.4950    1.1200 H   0  0  0  0  0  0  0  0  0  0  0  0
    6.9540    5.0820    1.5170 H   0  0  0  0  0  0  0  0  0  0  0  0
    9.2120    5.8400    2.2670 H   0  0  0  0  0  0  0  0  0  0  0  0
    9.7510    4.1850    1.8970 H   0  0  0  0  0  0  0  0  0  0  0  0
   10.8470    6.8100    0.8280 H   0  0  0  0  0  0  0  0  0  0  0  0
   11.1750    5.2580    0.0220 H   0  0  0  0  0  0  0  0  0  0  0  0
   13.2100    6.7470    0.9200 H   0  0  0  0  0  0  0  0  0  0  0  0
   13.9130    5.9380    2.3410 H   0  0  0  0  0  0  0  0  0  0  0  0
   13.2310    4.5920   -0.3190 H   0  0  0  0  0  0  0  0  0  0  0  0
   13.9290    3.7800    1.1030 H   0  0  0  0  0  0  0  0  0  0  0  0
   15.5170    6.0950    0.4930 H   0  0  0  0  0  0  0  0  0  0  0  0
   14.4430    3.4420   -1.7310 H   0  0  0  0  0  0  0  0  0  0  0  0
   15.9800    2.1000   -3.1260 H   0  0  0  0  0  0  0  0  0  0  0  0
   18.4390    2.3000   -2.8350 H   0  0  0  0  0  0  0  0  0  0  0  0
   21.6290    5.3450    0.2080 H   0  0  0  0  0  0  0  0  0  0  0  0
   19.8880    5.6240    2.7340 H   0  0  0  0  0  0  0  0  0  0  0  0
   20.9590    4.2540    2.3540 H   0  0  0  0  0  0  0  0  0  0  0  0
   22.9240    5.8220    2.2930 H   0  0  0  0  0  0  0  0  0  0  0  0
   22.1170    5.8740    3.8790 H   0  0  0  0  0  0  0  0  0  0  0  0
   21.0540    9.0310    1.3710 H   0  0  0  0  0  0  0  0  0  0  0  0
  1  2  1  0  0  0  0
  1102  1  0  0  0  0
  1103  1  0  0  0  0
  1104  1  0  0  0  0
  2  3  1  0  0  0  0
  2 62  1  0  0  0  0
  3  4  1  0  0  0  0
  3105  1  0  0  0  0
  3106  1  0  0  0  0
  4  5  1  0  0  0  0
  4107  1  0  0  0  0
  4108  1  0  0  0  0
  5  6  1  0  0  0  0
  5 14  1  0  0  0  0
  5109  1  0  0  0  0
  6  7  1  0  0  0  0
  6110  1  0  0  0  0
  6111  1  0  0  0  0
  7  8  1  0  0  0  0
  8  9  1  0  0  0  0
  8 13  2  0  0  0  0
  9 10  2  0  0  0  0
  9112  1  0  0  0  0
 10 11  1  0  0  0  0
 10113  1  0  0  0  0
 11 12  2  0  0  0  0
 11114  1  0  0  0  0
 12 13  1  0  0  0  0
 12115  1  0  0  0  0
 13116  1  0  0  0  0
 14 15  1  0  0  0  0
 14117  1  0  0  0  0
 15 16  1  0  0  0  0
 15 54  2  0  0  0  0
 16 17  2  0  0  0  0
 16118  1  0  0  0  0
 17 18  1  0  0  0  0
 17119  1  0  0  0  0
 18 19  1  0  0  0  0
 18 53  2  0  0  0  0
 19 20  2  0  0  0  0
 19 21  2  0  0  0  0
 19 22  1  0  0  0  0
 22 23  1  0  0  0  0
 22120  1  0  0  0  0
 23 24  2  0  0  0  0
 23 25  1  0  0  0  0
 25 26  1  0  0  0  0
 25 52  2  0  0  0  0
 26 27  2  0  0  0  0
 26121  1  0  0  0  0
 27 28  1  0  0  0  0
 27122  1  0  0  0  0
 28 29  1  0  0  0  0
 28 51  2  0  0  0  0
 29 30  1  0  0  0  0
 29 50  1  0  0  0  0
 30 31  1  0  0  0  0
 30123  1  0  0  0  0
 30124  1  0  0  0  0
 31 32  1  0  0  0  0
 31125  1  0  0  0  0
 31126  1  0  0  0  0
 32 33  1  0  0  0  0
 32 49  1  0  0  0  0
 32127  1  0  0  0  0
 33 34  1  0  0  0  0
 33128  1  0  0  0  0
 33129  1  0  0  0  0
 34 35  2  0  0  0  0
 34 48  1  0  0  0  0
 35 36  1  0  0  0  0
 35 43  1  0  0  0  0
 36 37  1  0  0  0  0
 36 42  2  0  0  0  0
 37 38  2  0  0  0  0
 37130  1  0  0  0  0
 38 39  1  0  0  0  0
 38131  1  0  0  0  0
 39 40  1  0  0  0  0
 39 41  2  0  0  0  0
 41 42  1  0  0  0  0
 41132  1  0  0  0  0
 42133  1  0  0  0  0
 43 44  1  0  0  0  0
 43134  1  0  0  0  0
 43135  1  0  0  0  0
 44 45  1  0  0  0  0
 44136  1  0  0  0  0
 44137  1  0  0  0  0
 45 46  1  0  0  0  0
 45 47  1  0  0  0  0
 45 48  1  0  0  0  0
 46138  1  0  0  0  0
 46139  1  0  0  0  0
 46140  1  0  0  0  0
 47141  1  0  0  0  0
 47142  1  0  0  0  0
 47143  1  0  0  0  0
 48144  1  0  0  0  0
 48145  1  0  0  0  0
 49 50  1  0  0  0  0
 49146  1  0  0  0  0
 49147  1  0  0  0  0
 50148  1  0  0  0  0
 50149  1  0  0  0  0
 51 52  1  0  0  0  0
 51150  1  0  0  0  0
 52151  1  0  0  0  0
 53 54  1  0  0  0  0
 53152  1  0  0  0  0
 54 55  1  0  0  0  0
 55 56  2  0  0  0  0
 55 57  2  0  0  0  0
 55 58  1  0  0  0  0
 58 59  1  0  0  0  0
 58 60  1  0  0  0  0
 58 61  1  0  0  0  0
 62 63  2  0  0  0  0
 62 64  1  0  0  0  0
 64 65  1  0  0  0  0
 64153  1  0  0  0  0
 64154  1  0  0  0  0
 65 66  1  0  0  0  0
 65155  1  0  0  0  0
 65156  1  0  0  0  0
 66 67  1  0  0  0  0
 66157  1  0  0  0  0
 66158  1  0  0  0  0
 67 68  1  0  0  0  0
 67101  1  0  0  0  0
 68 69  2  0  0  0  0
 68159  1  0  0  0  0
 69 70  1  0  0  0  0
 69100  1  0  0  0  0
 70 71  1  0  0  0  0
 70160  1  0  0  0  0
 70161  1  0  0  0  0
 71 72  1  0  0  0  0
 72 73  1  0  0  0  0
 72162  1  0  0  0  0
 72163  1  0  0  0  0
 73 74  1  0  0  0  0
 73164  1  0  0  0  0
 73165  1  0  0  0  0
 74 75  1  0  0  0  0
 75 76  1  0  0  0  0
 75166  1  0  0  0  0
 75167  1  0  0  0  0
 76 77  1  0  0  0  0
 76168  1  0  0  0  0
 76169  1  0  0  0  0
 77 78  1  0  0  0  0
 78 79  1  0  0  0  0
 78170  1  0  0  0  0
 78171  1  0  0  0  0
 79 80  1  0  0  0  0
 79172  1  0  0  0  0
 79173  1  0  0  0  0
 80 81  1  0  0  0  0
 80174  1  0  0  0  0
 81 82  1  0  0  0  0
 81 86  2  0  0  0  0
 82 83  2  0  0  0  0
 82175  1  0  0  0  0
 83 84  1  0  0  0  0
 83176  1  0  0  0  0
 84 85  2  0  0  0  0
 84177  1  0  0  0  0
 85 86  1  0  0  0  0
 85 98  1  0  0  0  0
 86 87  1  0  0  0  0
 87 88  2  0  0  0  0
 87 89  1  0  0  0  0
 89 90  1  0  0  0  0
 89 98  1  0  0  0  0
 90 91  1  0  0  0  0
 90 96  1  0  0  0  0
 90178  1  0  0  0  0
 91 92  1  0  0  0  0
 91179  1  0  0  0  0
 91180  1  0  0  0  0
 92 93  1  0  0  0  0
 92181  1  0  0  0  0
 92182  1  0  0  0  0
 93 94  2  0  0  0  0
 93 95  1  0  0  0  0
 95 96  1  0  0  0  0
 95183  1  0  0  0  0
 96 97  2  0  0  0  0
 98 99  2  0  0  0  0
100101  2  0  0  0  0
M  CHG  1  32   1
M  END
>  <Compound ID>
659

>  <Uniprot>
Q07817

>  <Target>
BCL-xL

>  <E3 ligase>
CRBN

>  <IC50 (nM, Cellular activities)>
769

>  <Assay (Cellular activities, IC50)>
Inhibit viability of MOLT-4 cells

>  <Article DOI>
10.1016/j.ejmech.2020.112186

>  <Molecular Weight>
1473.13

>  <Exact Mass>
1471.4818

>  <XLogP3>
8.9200001

>  <Heavy Atom Count>
101

>  <Ring Count>
10

>  <Hydrogen Bond Acceptor Count>
21

>  <Hydrogen Bond Donor Count>
4

>  <Rotatable Bond Count>
33

>  <Topological Polar Surface Area>
290.17999

>  <Molecular Formula>
C70H81ClF3N11O13S3

>  <InChI>
InChI=1S/C70H81ClF3N11O13S3/c1-69(2)28-26-56(47-14-18-50(71)19-15-47)49(42-69)43-82-32-34-83(35-33-82)53-20-16-48(17-21-53)65(88)79-101(94,95)55-22-23-58(61(41-55)100(92,93)70(72,73)74)76-51(46-99-54-9-5-4-6-10-54)27-31-81(3)63(87)13-8-30-84-44-52(78-80-84)45-98-40-39-97-38-37-96-36-29-75-59-12-7-11-57-64(59)68(91)85(67(57)90)60-24-25-62(86)77-66(60)89/h4-7,9-12,14-23,41,44,51,60,75-76H,8,13,24-40,42-43,45-46H2,1-3H3,(H,79,88)(H,77,86,89)/t51-,60?/m1/s1

>  <InChI Key>
FBVCBNKKRKGJFG-MBIIPZRXSA-N

$$$$
660
  MOE2018           3D

185194  0  0  1  0  0  0  0  0999 V2000
    1.6560    0.7320    2.3470 C   0  0  0  0  0  0  0  0  0  0  0  0
    1.3380   -0.5150    1.6200 N   0  0  0  0  0  0  0  0  0  0  0  0
   -0.0310   -0.6450    1.0880 C   0  0  0  0  0  0  0  0  0  0  0  0
    0.0410   -0.0380   -0.3260 C   0  0  0  0  0  0  0  0  0  0  0  0
   -1.3850    0.1350   -0.8670 C   0  0  2  0  0  0  0  0  0  0  0  0
   -2.0830   -1.2190   -1.1200 C   0  0  0  0  0  0  0  0  0  0  0  0
   -3.1550   -1.5170    0.3340 S   0  0  0  0  0  0  0  0  0  0  0  0
   -3.3540   -3.2530    0.4450 C   0  0  0  0  0  0  0  0  0  0  0  0
   -3.1460   -4.1040   -0.6500 C   0  0  0  0  0  0  0  0  0  0  0  0
   -3.3070   -5.4780   -0.5060 C   0  0  0  0  0  0  0  0  0  0  0  0
   -3.6820   -6.0170    0.7220 C   0  0  0  0  0  0  0  0  0  0  0  0
   -3.8990   -5.1760    1.8100 C   0  0  0  0  0  0  0  0  0  0  0  0
   -3.7380   -3.8020    1.6730 C   0  0  0  0  0  0  0  0  0  0  0  0
   -1.2390    0.8460   -2.1600 N   0  0  0  0  0  0  0  0  0  0  0  0
   -2.3230    1.6430   -2.5220 C   0  0  0  0  0  0  0  0  0  0  0  0
   -3.2650    1.1110   -3.4050 C   0  0  0  0  0  0  0  0  0  0  0  0
   -4.3790    1.8580   -3.7630 C   0  0  0  0  0  0  0  0  0  0  0  0
   -4.5670    3.1470   -3.2570 C   0  0  0  0  0  0  0  0  0  0  0  0
   -5.9990    4.1370   -3.7510 S   0  0  0  0  0  0  0  0  0  0  0  0
   -6.4950    3.6420   -4.9810 O   0  0  0  0  0  0  0  0  0  0  0  0
   -5.6290    5.5030   -3.7150 O   0  0  0  0  0  0  0  0  0  0  0  0
   -7.1310    3.8490   -2.5820 N   0  0  0  0  0  0  0  0  0  0  0  0
   -8.3800    4.3690   -2.6990 C   0  0  0  0  0  0  0  0  0  0  0  0
   -8.5380    5.3000   -3.4700 O   0  0  0  0  0  0  0  0  0  0  0  0
   -9.4810    3.8150   -1.8990 C   0  0  0  0  0  0  0  0  0  0  0  0
   -9.3650    2.6190   -1.1600 C   0  0  0  0  0  0  0  0  0  0  0  0
  -10.4430    2.1130   -0.4440 C   0  0  0  0  0  0  0  0  0  0  0  0
  -11.6680    2.7930   -0.4500 C   0  0  0  0  0  0  0  0  0  0  0  0
  -12.7920    2.3020    0.2320 N   0  0  0  0  0  0  0  0  0  0  0  0
  -13.9880    2.0350   -0.6120 C   0  0  0  0  0  0  0  0  0  0  0  0
  -15.2240    2.1240    0.3160 C   0  0  0  0  0  0  0  0  0  0  0  0
  -15.0900    1.1070    1.4120 N   0  3  0  0  0  0  0  0  0  0  0  0
  -16.2780    1.2110    2.2620 C   0  0  0  0  0  0  0  0  0  0  0  0
  -17.3150    0.3970    1.5140 C   0  0  0  0  0  0  0  0  0  0  0  0
  -18.2940    0.9740    0.7710 C   0  0  0  0  0  0  0  0  0  0  0  0
  -18.4400    2.4210    0.6360 C   0  0  0  0  0  0  0  0  0  0  0  0
  -18.7180    3.2210    1.7520 C   0  0  0  0  0  0  0  0  0  0  0  0
  -18.8170    4.6020    1.6290 C   0  0  0  0  0  0  0  0  0  0  0  0
  -18.6510    5.2020    0.3800 C   0  0  0  0  0  0  0  0  0  0  0  0
  -18.7520    6.9250    0.2270 Cl  0  0  0  0  0  0  0  0  0  0  0  0
  -18.4050    4.4150   -0.7460 C   0  0  0  0  0  0  0  0  0  0  0  0
  -18.3080    3.0350   -0.6180 C   0  0  0  0  0  0  0  0  0  0  0  0
  -19.3200    0.1700   -0.0220 C   0  0  0  0  0  0  0  0  0  0  0  0
  -19.3680   -1.2900    0.4700 C   0  0  0  0  0  0  0  0  0  0  0  0
  -17.9380   -1.8560    0.5860 C   0  0  0  0  0  0  0  0  0  0  0  0
  -17.1400   -1.8030   -0.7340 C   0  0  0  0  0  0  0  0  0  0  0  0
  -18.0600   -3.3410    0.9700 C   0  0  0  0  0  0  0  0  0  0  0  0
  -17.1940   -1.1130    1.7180 C   0  0  0  0  0  0  0  0  0  0  0  0
  -13.8880    1.4580    2.2370 C   0  0  0  0  0  0  0  0  0  0  0  0
  -12.6160    1.3480    1.3540 C   0  0  0  0  0  0  0  0  0  0  0  0
  -11.7910    3.9940   -1.1560 C   0  0  0  0  0  0  0  0  0  0  0  0
  -10.7130    4.4920   -1.8710 C   0  0  0  0  0  0  0  0  0  0  0  0
   -3.5930    3.6820   -2.4070 C   0  0  0  0  0  0  0  0  0  0  0  0
   -2.4570    2.9530   -2.0370 C   0  0  0  0  0  0  0  0  0  0  0  0
   -1.1720    3.7410   -1.0340 S   0  0  0  0  0  0  0  0  0  0  0  0
   -0.9760    2.9870    0.1630 O   0  0  0  0  0  0  0  0  0  0  0  0
   -1.5660    5.0950   -0.8240 O   0  0  0  0  0  0  0  0  0  0  0  0
    0.3800    3.6880   -2.1460 C   0  0  0  0  0  0  0  0  0  0  0  0
    1.2110    4.7480   -1.9770 F   0  0  0  0  0  0  0  0  0  0  0  0
    1.1900    2.6170   -1.9730 F   0  0  0  0  0  0  0  0  0  0  0  0
    0.1030    3.6930   -3.4760 F   0  0  0  0  0  0  0  0  0  0  0  0
    2.2640   -1.4550    1.3290 C   0  0  0  0  0  0  0  0  0  0  0  0
    1.9770   -2.4620    0.6850 O   0  0  0  0  0  0  0  0  0  0  0  0
    3.7140   -1.2310    1.7810 C   0  0  0  0  0  0  0  0  0  0  0  0
    4.6910   -2.3450    1.3620 C   0  0  0  0  0  0  0  0  0  0  0  0
    6.1260   -1.9940    1.7760 C   0  0  0  0  0  0  0  0  0  0  0  0
    7.0940   -3.1240    1.4040 C   0  0  0  0  0  0  0  0  0  0  0  0
    8.5300   -2.7200    1.7740 C   0  0  0  0  0  0  0  0  0  0  0  0
    9.4430   -3.9200    1.4470 C   0  0  0  0  0  0  0  0  0  0  0  0
   10.8000   -3.4960    1.7650 N   0  0  0  0  0  0  0  0  0  0  0  0
   11.7010   -3.0080    0.9140 C   0  0  0  0  0  0  0  0  0  0  0  0
   12.7830   -2.7300    1.6640 C   0  0  0  0  0  0  0  0  0  0  0  0
   14.0940   -2.1290    1.2020 C   0  0  0  0  0  0  0  0  0  0  0  0
   14.2800   -2.5500   -0.1920 O   0  0  0  0  0  0  0  0  0  0  0  0
   15.5310   -2.1760   -0.8340 C   0  0  0  0  0  0  0  0  0  0  0  0
   16.5430   -3.2640   -0.4710 C   0  0  0  0  0  0  0  0  0  0  0  0
   17.8020   -2.9300   -1.0380 O   0  0  0  0  0  0  0  0  0  0  0  0
   18.8230   -3.8470   -0.6620 C   0  0  0  0  0  0  0  0  0  0  0  0
   20.1330   -3.4710   -1.3570 C   0  0  0  0  0  0  0  0  0  0  0  0
   21.1700   -4.3260   -0.7570 N   0  0  0  0  0  0  0  0  0  0  0  0
   22.0410   -3.9130    0.2500 C   0  0  0  0  0  0  0  0  0  0  0  0
   21.7730   -2.7970    1.0590 C   0  0  0  0  0  0  0  0  0  0  0  0
   22.6750   -2.4240    2.0590 C   0  0  0  0  0  0  0  0  0  0  0  0
   23.8480   -3.1560    2.2700 C   0  0  0  0  0  0  0  0  0  0  0  0
   24.0980   -4.2650    1.4640 C   0  0  0  0  0  0  0  0  0  0  0  0
   23.2150   -4.6430    0.4710 C   0  0  0  0  0  0  0  0  0  0  0  0
   23.7520   -5.8040   -0.1820 C   0  0  0  0  0  0  0  0  0  0  0  0
   23.3150   -6.4430   -1.1340 O   0  0  0  0  0  0  0  0  0  0  0  0
   24.9560   -6.1220    0.4350 N   0  0  0  0  0  0  0  0  0  0  0  0
   25.7980   -7.3020    0.1900 C   0  0  2  0  0  0  0  0  0  0  0  0
   26.3970   -7.1780   -1.2350 C   0  0  0  0  0  0  0  0  0  0  0  0
   27.1960   -8.4750   -1.5020 C   0  0  0  0  0  0  0  0  0  0  0  0
   26.2310   -9.6440   -1.4320 C   0  0  0  0  0  0  0  0  0  0  0  0
   26.3060  -10.6090   -2.1490 O   0  0  0  0  0  0  0  0  0  0  0  0
   25.2330   -9.6460   -0.5120 N   0  0  0  0  0  0  0  0  0  0  0  0
   24.9610   -8.5870    0.3000 C   0  0  0  0  0  0  0  0  0  0  0  0
   24.0770   -8.7610    1.1090 O   0  0  0  0  0  0  0  0  0  0  0  0
   25.1960   -5.2020    1.4380 C   0  0  0  0  0  0  0  0  0  0  0  0
   26.2030   -5.2420    2.1280 O   0  0  0  0  0  0  0  0  0  0  0  0
   12.5280   -3.0410    2.9520 N   0  0  0  0  0  0  0  0  0  0  0  0
   11.3050   -3.5130    3.0070 N   0  0  0  0  0  0  0  0  0  0  0  0
    0.7500    1.3270    2.4610 H   0  0  0  0  0  0  0  0  0  0  0  0
    2.3970    1.3010    1.7850 H   0  0  0  0  0  0  0  0  0  0  0  0
    2.0560    0.4870    3.3310 H   0  0  0  0  0  0  0  0  0  0  0  0
   -0.3280   -1.6930    1.0420 H   0  0  0  0  0  0  0  0  0  0  0  0
   -0.7380   -0.0940    1.7080 H   0  0  0  0  0  0  0  0  0  0  0  0
    0.6030   -0.7040   -0.9820 H   0  0  0  0  0  0  0  0  0  0  0  0
    0.5360    0.9320   -0.2830 H   0  0  0  0  0  0  0  0  0  0  0  0
   -1.9950    0.6750   -0.1430 H   0  0  0  0  0  0  0  0  0  0  0  0
   -1.3430   -2.0140   -1.2140 H   0  0  0  0  0  0  0  0  0  0  0  0
   -2.6830   -1.1710   -2.0290 H   0  0  0  0  0  0  0  0  0  0  0  0
   -2.8600   -3.6920   -1.6070 H   0  0  0  0  0  0  0  0  0  0  0  0
   -3.1400   -6.1300   -1.3510 H   0  0  0  0  0  0  0  0  0  0  0  0
   -3.8040   -7.0850    0.8300 H   0  0  0  0  0  0  0  0  0  0  0  0
   -4.1930   -5.5920    2.7620 H   0  0  0  0  0  0  0  0  0  0  0  0
   -3.9100   -3.1540    2.5200 H   0  0  0  0  0  0  0  0  0  0  0  0
   -0.4140    0.7590   -2.7360 H   0  0  0  0  0  0  0  0  0  0  0  0
   -3.1270    0.1190   -3.8090 H   0  0  0  0  0  0  0  0  0  0  0  0
   -5.1080    1.4380   -4.4400 H   0  0  0  0  0  0  0  0  0  0  0  0
   -6.8930    3.2850   -1.7790 H   0  0  0  0  0  0  0  0  0  0  0  0
   -8.4240    2.0890   -1.1510 H   0  0  0  0  0  0  0  0  0  0  0  0
  -10.3370    1.1960    0.1170 H   0  0  0  0  0  0  0  0  0  0  0  0
  -14.0610    2.7790   -1.4050 H   0  0  0  0  0  0  0  0  0  0  0  0
  -13.9210    1.0400   -1.0520 H   0  0  0  0  0  0  0  0  0  0  0  0
  -16.1280    1.9230   -0.2600 H   0  0  0  0  0  0  0  0  0  0  0  0
  -15.2840    3.1220    0.7500 H   0  0  0  0  0  0  0  0  0  0  0  0
  -14.9960    0.1760    1.0320 H   0  0  0  0  0  0  0  0  0  0  0  0
  -16.0890    0.7900    3.2500 H   0  0  0  0  0  0  0  0  0  0  0  0
  -16.5950    2.2490    2.3640 H   0  0  0  0  0  0  0  0  0  0  0  0
  -18.8570    2.7600    2.7190 H   0  0  0  0  0  0  0  0  0  0  0  0
  -19.0220    5.2090    2.4980 H   0  0  0  0  0  0  0  0  0  0  0  0
  -18.2900    4.8780   -1.7150 H   0  0  0  0  0  0  0  0  0  0  0  0
  -18.1290    2.4290   -1.4940 H   0  0  0  0  0  0  0  0  0  0  0  0
  -20.3040    0.6220    0.1040 H   0  0  0  0  0  0  0  0  0  0  0  0
  -19.0470    0.1830   -1.0770 H   0  0  0  0  0  0  0  0  0  0  0  0
  -19.9370   -1.8910   -0.2390 H   0  0  0  0  0  0  0  0  0  0  0  0
  -19.8510   -1.3260    1.4470 H   0  0  0  0  0  0  0  0  0  0  0  0
  -17.6890   -2.3340   -1.5120 H   0  0  0  0  0  0  0  0  0  0  0  0
  -16.1670   -2.2730   -0.5900 H   0  0  0  0  0  0  0  0  0  0  0  0
  -17.0000   -0.7640   -1.0330 H   0  0  0  0  0  0  0  0  0  0  0  0
  -18.5840   -3.8790    0.1800 H   0  0  0  0  0  0  0  0  0  0  0  0
  -18.6180   -3.4310    1.9020 H   0  0  0  0  0  0  0  0  0  0  0  0
  -17.0650   -3.7660    1.1010 H   0  0  0  0  0  0  0  0  0  0  0  0
  -16.1420   -1.3960    1.7060 H   0  0  0  0  0  0  0  0  0  0  0  0
  -17.6330   -1.3850    2.6780 H   0  0  0  0  0  0  0  0  0  0  0  0
  -13.9860    2.4770    2.6100 H   0  0  0  0  0  0  0  0  0  0  0  0
  -13.8090    0.7690    3.0780 H   0  0  0  0  0  0  0  0  0  0  0  0
  -12.5110    0.3330    0.9710 H   0  0  0  0  0  0  0  0  0  0  0  0
  -11.7320    1.6100    1.9350 H   0  0  0  0  0  0  0  0  0  0  0  0
  -12.7260    4.5340   -1.1440 H   0  0  0  0  0  0  0  0  0  0  0  0
  -10.8210    5.4180   -2.4170 H   0  0  0  0  0  0  0  0  0  0  0  0
   -3.7210    4.6840   -2.0260 H   0  0  0  0  0  0  0  0  0  0  0  0
    4.0640   -0.2920    1.3520 H   0  0  0  0  0  0  0  0  0  0  0  0
    3.7250   -1.1600    2.8690 H   0  0  0  0  0  0  0  0  0  0  0  0
    4.3980   -3.2780    1.8440 H   0  0  0  0  0  0  0  0  0  0  0  0
    4.6510   -2.4670    0.2800 H   0  0  0  0  0  0  0  0  0  0  0  0
    6.4310   -1.0800    1.2660 H   0  0  0  0  0  0  0  0  0  0  0  0
    6.1580   -1.8370    2.8540 H   0  0  0  0  0  0  0  0  0  0  0  0
    7.0360   -3.3130    0.3320 H   0  0  0  0  0  0  0  0  0  0  0  0
    6.8210   -4.0280    1.9470 H   0  0  0  0  0  0  0  0  0  0  0  0
    8.5890   -2.4850    2.8370 H   0  0  0  0  0  0  0  0  0  0  0  0
    8.8340   -1.8500    1.1920 H   0  0  0  0  0  0  0  0  0  0  0  0
    9.3650   -4.1770    0.3910 H   0  0  0  0  0  0  0  0  0  0  0  0
    9.1650   -4.7830    2.0530 H   0  0  0  0  0  0  0  0  0  0  0  0
   11.5870   -2.8660   -0.1510 H   0  0  0  0  0  0  0  0  0  0  0  0
   14.9140   -2.4970    1.8190 H   0  0  0  0  0  0  0  0  0  0  0  0
   14.0520   -1.0420    1.2640 H   0  0  0  0  0  0  0  0  0  0  0  0
   15.4010   -2.1280   -1.9150 H   0  0  0  0  0  0  0  0  0  0  0  0
   15.8700   -1.2080   -0.4650 H   0  0  0  0  0  0  0  0  0  0  0  0
   16.2070   -4.2230   -0.8660 H   0  0  0  0  0  0  0  0  0  0  0  0
   16.6360   -3.3300    0.6130 H   0  0  0  0  0  0  0  0  0  0  0  0
   18.9630   -3.8110    0.4180 H   0  0  0  0  0  0  0  0  0  0  0  0
   18.5320   -4.8550   -0.9580 H   0  0  0  0  0  0  0  0  0  0  0  0
   20.3640   -2.4190   -1.1870 H   0  0  0  0  0  0  0  0  0  0  0  0
   20.0610   -3.6580   -2.4280 H   0  0  0  0  0  0  0  0  0  0  0  0
   21.2560   -5.2730   -1.0970 H   0  0  0  0  0  0  0  0  0  0  0  0
   20.8690   -2.2260    0.9080 H   0  0  0  0  0  0  0  0  0  0  0  0
   22.4640   -1.5620    2.6750 H   0  0  0  0  0  0  0  0  0  0  0  0
   24.5460   -2.8680    3.0420 H   0  0  0  0  0  0  0  0  0  0  0  0
   26.5950   -7.3530    0.9320 H   0  0  0  0  0  0  0  0  0  0  0  0
   25.5980   -7.0720   -1.9690 H   0  0  0  0  0  0  0  0  0  0  0  0
   27.0580   -6.3130   -1.2900 H   0  0  0  0  0  0  0  0  0  0  0  0
   27.9740   -8.5920   -0.7480 H   0  0  0  0  0  0  0  0  0  0  0  0
   27.6530   -8.4310   -2.4910 H   0  0  0  0  0  0  0  0  0  0  0  0
   24.6630  -10.4750   -0.4250 H   0  0  0  0  0  0  0  0  0  0  0  0
  1  2  1  0  0  0  0
  1102  1  0  0  0  0
  1103  1  0  0  0  0
  1104  1  0  0  0  0
  2  3  1  0  0  0  0
  2 62  1  0  0  0  0
  3  4  1  0  0  0  0
  3105  1  0  0  0  0
  3106  1  0  0  0  0
  4  5  1  0  0  0  0
  4107  1  0  0  0  0
  4108  1  0  0  0  0
  5  6  1  0  0  0  0
  5 14  1  0  0  0  0
  5109  1  0  0  0  0
  6  7  1  0  0  0  0
  6110  1  0  0  0  0
  6111  1  0  0  0  0
  7  8  1  0  0  0  0
  8  9  1  0  0  0  0
  8 13  2  0  0  0  0
  9 10  2  0  0  0  0
  9112  1  0  0  0  0
 10 11  1  0  0  0  0
 10113  1  0  0  0  0
 11 12  2  0  0  0  0
 11114  1  0  0  0  0
 12 13  1  0  0  0  0
 12115  1  0  0  0  0
 13116  1  0  0  0  0
 14 15  1  0  0  0  0
 14117  1  0  0  0  0
 15 16  1  0  0  0  0
 15 54  2  0  0  0  0
 16 17  2  0  0  0  0
 16118  1  0  0  0  0
 17 18  1  0  0  0  0
 17119  1  0  0  0  0
 18 19  1  0  0  0  0
 18 53  2  0  0  0  0
 19 20  2  0  0  0  0
 19 21  2  0  0  0  0
 19 22  1  0  0  0  0
 22 23  1  0  0  0  0
 22120  1  0  0  0  0
 23 24  2  0  0  0  0
 23 25  1  0  0  0  0
 25 26  1  0  0  0  0
 25 52  2  0  0  0  0
 26 27  2  0  0  0  0
 26121  1  0  0  0  0
 27 28  1  0  0  0  0
 27122  1  0  0  0  0
 28 29  1  0  0  0  0
 28 51  2  0  0  0  0
 29 30  1  0  0  0  0
 29 50  1  0  0  0  0
 30 31  1  0  0  0  0
 30123  1  0  0  0  0
 30124  1  0  0  0  0
 31 32  1  0  0  0  0
 31125  1  0  0  0  0
 31126  1  0  0  0  0
 32 33  1  0  0  0  0
 32 49  1  0  0  0  0
 32127  1  0  0  0  0
 33 34  1  0  0  0  0
 33128  1  0  0  0  0
 33129  1  0  0  0  0
 34 35  2  0  0  0  0
 34 48  1  0  0  0  0
 35 36  1  0  0  0  0
 35 43  1  0  0  0  0
 36 37  1  0  0  0  0
 36 42  2  0  0  0  0
 37 38  2  0  0  0  0
 37130  1  0  0  0  0
 38 39  1  0  0  0  0
 38131  1  0  0  0  0
 39 40  1  0  0  0  0
 39 41  2  0  0  0  0
 41 42  1  0  0  0  0
 41132  1  0  0  0  0
 42133  1  0  0  0  0
 43 44  1  0  0  0  0
 43134  1  0  0  0  0
 43135  1  0  0  0  0
 44 45  1  0  0  0  0
 44136  1  0  0  0  0
 44137  1  0  0  0  0
 45 46  1  0  0  0  0
 45 47  1  0  0  0  0
 45 48  1  0  0  0  0
 46138  1  0  0  0  0
 46139  1  0  0  0  0
 46140  1  0  0  0  0
 47141  1  0  0  0  0
 47142  1  0  0  0  0
 47143  1  0  0  0  0
 48144  1  0  0  0  0
 48145  1  0  0  0  0
 49 50  1  0  0  0  0
 49146  1  0  0  0  0
 49147  1  0  0  0  0
 50148  1  0  0  0  0
 50149  1  0  0  0  0
 51 52  1  0  0  0  0
 51150  1  0  0  0  0
 52151  1  0  0  0  0
 53 54  1  0  0  0  0
 53152  1  0  0  0  0
 54 55  1  0  0  0  0
 55 56  2  0  0  0  0
 55 57  2  0  0  0  0
 55 58  1  0  0  0  0
 58 59  1  0  0  0  0
 58 60  1  0  0  0  0
 58 61  1  0  0  0  0
 62 63  2  0  0  0  0
 62 64  1  0  0  0  0
 64 65  1  0  0  0  0
 64153  1  0  0  0  0
 64154  1  0  0  0  0
 65 66  1  0  0  0  0
 65155  1  0  0  0  0
 65156  1  0  0  0  0
 66 67  1  0  0  0  0
 66157  1  0  0  0  0
 66158  1  0  0  0  0
 67 68  1  0  0  0  0
 67159  1  0  0  0  0
 67160  1  0  0  0  0
 68 69  1  0  0  0  0
 68161  1  0  0  0  0
 68162  1  0  0  0  0
 69 70  1  0  0  0  0
 69163  1  0  0  0  0
 69164  1  0  0  0  0
 70 71  1  0  0  0  0
 70101  1  0  0  0  0
 71 72  2  0  0  0  0
 71165  1  0  0  0  0
 72 73  1  0  0  0  0
 72100  1  0  0  0  0
 73 74  1  0  0  0  0
 73166  1  0  0  0  0
 73167  1  0  0  0  0
 74 75  1  0  0  0  0
 75 76  1  0  0  0  0
 75168  1  0  0  0  0
 75169  1  0  0  0  0
 76 77  1  0  0  0  0
 76170  1  0  0  0  0
 76171  1  0  0  0  0
 77 78  1  0  0  0  0
 78 79  1  0  0  0  0
 78172  1  0  0  0  0
 78173  1  0  0  0  0
 79 80  1  0  0  0  0
 79174  1  0  0  0  0
 79175  1  0  0  0  0
 80 81  1  0  0  0  0
 80176  1  0  0  0  0
 81 82  1  0  0  0  0
 81 86  2  0  0  0  0
 82 83  2  0  0  0  0
 82177  1  0  0  0  0
 83 84  1  0  0  0  0
 83178  1  0  0  0  0
 84 85  2  0  0  0  0
 84179  1  0  0  0  0
 85 86  1  0  0  0  0
 85 98  1  0  0  0  0
 86 87  1  0  0  0  0
 87 88  2  0  0  0  0
 87 89  1  0  0  0  0
 89 90  1  0  0  0  0
 89 98  1  0  0  0  0
 90 91  1  0  0  0  0
 90 96  1  0  0  0  0
 90180  1  0  0  0  0
 91 92  1  0  0  0  0
 91181  1  0  0  0  0
 91182  1  0  0  0  0
 92 93  1  0  0  0  0
 92183  1  0  0  0  0
 92184  1  0  0  0  0
 93 94  2  0  0  0  0
 93 95  1  0  0  0  0
 95 96  1  0  0  0  0
 95185  1  0  0  0  0
 96 97  2  0  0  0  0
 98 99  2  0  0  0  0
100101  2  0  0  0  0
M  CHG  1  32   1
M  END
>  <Compound ID>
660

>  <Uniprot>
Q07817

>  <Target>
BCL-xL

>  <E3 ligase>
CRBN

>  <IC50 (nM, Cellular activities)>
177

>  <Assay (Cellular activities, IC50)>
Inhibit viability of MOLT-4 cells

>  <Article DOI>
10.1016/j.ejmech.2020.112186

>  <Molecular Weight>
1471.158

>  <Exact Mass>
1469.5026

>  <XLogP3>
10.33

>  <Heavy Atom Count>
101

>  <Ring Count>
10

>  <Hydrogen Bond Acceptor Count>
20

>  <Hydrogen Bond Donor Count>
4

>  <Rotatable Bond Count>
33

>  <Topological Polar Surface Area>
280.95001

>  <Molecular Formula>
C71H83ClF3N11O12S3

>  <InChI>
InChI=1S/C71H83ClF3N11O12S3/c1-70(2)31-29-57(48-17-21-51(72)22-18-48)50(43-70)44-83-35-37-84(38-36-83)54-23-19-49(20-24-54)66(89)80-101(95,96)56-25-26-59(62(42-56)100(93,94)71(73,74)75)77-52(47-99-55-12-7-6-8-13-55)30-34-82(3)64(88)16-9-4-5-10-33-85-45-53(79-81-85)46-98-41-40-97-39-32-76-60-15-11-14-58-65(60)69(92)86(68(58)91)61-27-28-63(87)78-67(61)90/h6-8,11-15,17-26,42,45,52,61,76-77H,4-5,9-10,16,27-41,43-44,46-47H2,1-3H3,(H,80,89)(H,78,87,90)/t52-,61?/m1/s1

>  <InChI Key>
QCTMCAHHNATDGH-ADXOFTSBSA-N

$$$$
661
  MOE2018           3D

192201  0  0  1  0  0  0  0  0999 V2000
   -0.3370    0.4010    2.3850 C   0  0  0  0  0  0  0  0  0  0  0  0
   -0.6580   -0.6330    1.3790 N   0  0  0  0  0  0  0  0  0  0  0  0
   -2.0430   -1.1370    1.3520 C   0  0  0  0  0  0  0  0  0  0  0  0
   -2.8210   -0.1650    0.4470 C   0  0  0  0  0  0  0  0  0  0  0  0
   -4.3140   -0.5100    0.5590 C   0  0  2  0  0  0  0  0  0  0  0  0
   -4.7140   -1.8290   -0.1260 C   0  0  0  0  0  0  0  0  0  0  0  0
   -4.7430   -3.0960    1.1950 S   0  0  0  0  0  0  0  0  0  0  0  0
   -4.9940   -4.6400    0.4080 C   0  0  0  0  0  0  0  0  0  0  0  0
   -4.9000   -5.8000    1.1850 C   0  0  0  0  0  0  0  0  0  0  0  0
   -5.0880   -7.0510    0.6080 C   0  0  0  0  0  0  0  0  0  0  0  0
   -5.3750   -7.1590   -0.7500 C   0  0  0  0  0  0  0  0  0  0  0  0
   -5.4740   -6.0100   -1.5290 C   0  0  0  0  0  0  0  0  0  0  0  0
   -5.2870   -4.7560   -0.9590 C   0  0  0  0  0  0  0  0  0  0  0  0
   -5.0160    0.5710   -0.1460 N   0  0  0  0  0  0  0  0  0  0  0  0
   -6.0000    1.3080    0.5340 C   0  0  0  0  0  0  0  0  0  0  0  0
   -6.8130    0.6760    1.4830 C   0  0  0  0  0  0  0  0  0  0  0  0
   -7.7220    1.4150    2.2250 C   0  0  0  0  0  0  0  0  0  0  0  0
   -7.8640    2.7890    2.0190 C   0  0  0  0  0  0  0  0  0  0  0  0
   -9.0090    3.7470    3.0350 S   0  0  0  0  0  0  0  0  0  0  0  0
   -8.9800    3.2260    4.3510 O   0  0  0  0  0  0  0  0  0  0  0  0
   -8.7130    5.1230    2.8850 O   0  0  0  0  0  0  0  0  0  0  0  0
  -10.4920    3.4550    2.3690 N   0  0  0  0  0  0  0  0  0  0  0  0
  -11.5940    4.0860    2.8450 C   0  0  0  0  0  0  0  0  0  0  0  0
  -11.5050    4.6770    3.9070 O   0  0  0  0  0  0  0  0  0  0  0  0
  -12.8380    4.0330    2.0710 C   0  0  0  0  0  0  0  0  0  0  0  0
  -13.8790    4.9270    2.3760 C   0  0  0  0  0  0  0  0  0  0  0  0
  -15.0740    4.9080    1.6720 C   0  0  0  0  0  0  0  0  0  0  0  0
  -15.2540    3.9840    0.6360 C   0  0  0  0  0  0  0  0  0  0  0  0
  -16.4460    3.9230   -0.0930 N   0  0  0  0  0  0  0  0  0  0  0  0
  -17.7000    4.3430    0.5840 C   0  0  0  0  0  0  0  0  0  0  0  0
  -18.8750    3.7350   -0.2230 C   0  0  0  0  0  0  0  0  0  0  0  0
  -18.8100    4.2570   -1.6310 N   0  3  0  0  0  0  0  0  0  0  0  0
  -19.9510    3.7120   -2.3620 C   0  0  0  0  0  0  0  0  0  0  0  0
  -21.0790    4.6350   -1.9560 C   0  0  0  0  0  0  0  0  0  0  0  0
  -22.0390    4.2870   -1.0710 C   0  0  0  0  0  0  0  0  0  0  0  0
  -22.1120    2.9840   -0.4200 C   0  0  0  0  0  0  0  0  0  0  0  0
  -22.2680    1.8130   -1.1740 C   0  0  0  0  0  0  0  0  0  0  0  0
  -22.2970    0.5690   -0.5550 C   0  0  0  0  0  0  0  0  0  0  0  0
  -22.1820    0.4800    0.8330 C   0  0  0  0  0  0  0  0  0  0  0  0
  -22.2000   -1.0700    1.6060 Cl  0  0  0  0  0  0  0  0  0  0  0  0
  -22.0530    1.6400    1.5980 C   0  0  0  0  0  0  0  0  0  0  0  0
  -22.0250    2.8810    0.9750 C   0  0  0  0  0  0  0  0  0  0  0  0
  -23.1010    5.3140   -0.7200 C   0  0  0  0  0  0  0  0  0  0  0  0
  -22.3020    6.5720   -0.3180 C   0  0  0  0  0  0  0  0  0  0  0  0
  -21.4220    7.0780   -1.5040 C   0  0  0  0  0  0  0  0  0  0  0  0
  -22.1150    8.2820   -2.1670 C   0  0  0  0  0  0  0  0  0  0  0  0
  -20.0900    7.5900   -0.9230 C   0  0  0  0  0  0  0  0  0  0  0  0
  -21.1420    6.0080   -2.6100 C   0  0  0  0  0  0  0  0  0  0  0  0
  -17.5510    3.7480   -2.2630 C   0  0  0  0  0  0  0  0  0  0  0  0
  -16.3340    4.3480   -1.5100 C   0  0  0  0  0  0  0  0  0  0  0  0
  -14.2320    3.0860    0.3160 C   0  0  0  0  0  0  0  0  0  0  0  0
  -13.0400    3.1070    1.0280 C   0  0  0  0  0  0  0  0  0  0  0  0
   -7.0840    3.4020    1.0330 C   0  0  0  0  0  0  0  0  0  0  0  0
   -6.1700    2.6760    0.2630 C   0  0  0  0  0  0  0  0  0  0  0  0
   -5.2430    3.5050   -1.0450 S   0  0  0  0  0  0  0  0  0  0  0  0
   -5.2830    4.9070   -0.7950 O   0  0  0  0  0  0  0  0  0  0  0  0
   -3.9350    2.9360   -1.1270 O   0  0  0  0  0  0  0  0  0  0  0  0
   -6.2510    3.0890   -2.5950 C   0  0  0  0  0  0  0  0  0  0  0  0
   -7.5790    3.3550   -2.4650 F   0  0  0  0  0  0  0  0  0  0  0  0
   -6.2110    1.7850   -2.9530 F   0  0  0  0  0  0  0  0  0  0  0  0
   -5.8760    3.7600   -3.7100 F   0  0  0  0  0  0  0  0  0  0  0  0
    0.2700   -1.1720    0.5560 C   0  0  0  0  0  0  0  0  0  0  0  0
   -0.0370   -1.9830   -0.3130 O   0  0  0  0  0  0  0  0  0  0  0  0
    1.7420   -0.7640    0.7240 C   0  0  0  0  0  0  0  0  0  0  0  0
    2.7410   -1.6730   -0.0160 C   0  0  0  0  0  0  0  0  0  0  0  0
    4.1860   -1.2750    0.3190 C   0  0  0  0  0  0  0  0  0  0  0  0
    5.1880   -2.2570   -0.3040 C   0  0  0  0  0  0  0  0  0  0  0  0
    6.6150   -1.8890    0.1360 C   0  0  0  0  0  0  0  0  0  0  0  0
    7.5640   -2.9720   -0.4210 C   0  0  0  0  0  0  0  0  0  0  0  0
    8.8950   -2.6500    0.0810 N   0  0  0  0  0  0  0  0  0  0  0  0
    9.8750   -2.0360   -0.5800 C   0  0  0  0  0  0  0  0  0  0  0  0
   10.8910   -1.9450    0.2990 C   0  0  0  0  0  0  0  0  0  0  0  0
   12.2480   -1.3100    0.0770 C   0  0  0  0  0  0  0  0  0  0  0  0
   12.6320   -1.6120   -1.3050 O   0  0  0  0  0  0  0  0  0  0  0  0
   13.9880   -1.2640   -1.7000 C   0  0  0  0  0  0  0  0  0  0  0  0
   14.8690   -2.4580   -1.3260 C   0  0  0  0  0  0  0  0  0  0  0  0
   16.2280   -2.1230   -1.5690 O   0  0  0  0  0  0  0  0  0  0  0  0
   17.1240   -3.1520   -1.1690 C   0  0  0  0  0  0  0  0  0  0  0  0
   18.5580   -2.7100   -1.4550 C   0  0  0  0  0  0  0  0  0  0  0  0
   19.4610   -3.6150   -0.8330 O   0  0  0  0  0  0  0  0  0  0  0  0
   20.8210   -3.2790   -1.0790 C   0  0  0  0  0  0  0  0  0  0  0  0
   21.7300   -4.2650   -0.3420 C   0  0  0  0  0  0  0  0  0  0  0  0
   23.1130   -3.8620   -0.6430 N   0  0  0  0  0  0  0  0  0  0  0  0
   24.2010   -4.5380   -0.0970 C   0  0  0  0  0  0  0  0  0  0  0  0
   24.1380   -5.8990    0.2430 C   0  0  0  0  0  0  0  0  0  0  0  0
   25.2580   -6.5390    0.7800 C   0  0  0  0  0  0  0  0  0  0  0  0
   26.4510   -5.8390    0.9810 C   0  0  0  0  0  0  0  0  0  0  0  0
   26.5000   -4.4890    0.6370 C   0  0  0  0  0  0  0  0  0  0  0  0
   25.3990   -3.8440    0.1080 C   0  0  0  0  0  0  0  0  0  0  0  0
   25.7560   -2.4720   -0.1220 C   0  0  0  0  0  0  0  0  0  0  0  0
   25.0700   -1.5420   -0.5330 O   0  0  0  0  0  0  0  0  0  0  0  0
   27.0830   -2.3070    0.2570 N   0  0  0  0  0  0  0  0  0  0  0  0
   27.9200   -1.1120    0.0790 C   0  0  2  0  0  0  0  0  0  0  0  0
   27.3730    0.0050    1.0040 C   0  0  0  0  0  0  0  0  0  0  0  0
   28.2200    1.2700    0.7310 C   0  0  0  0  0  0  0  0  0  0  0  0
   28.0410    1.6520   -0.7270 C   0  0  0  0  0  0  0  0  0  0  0  0
   27.9940    2.7910   -1.1130 O   0  0  0  0  0  0  0  0  0  0  0  0
   27.9460    0.6840   -1.6750 N   0  0  0  0  0  0  0  0  0  0  0  0
   27.8840   -0.6450   -1.3860 C   0  0  0  0  0  0  0  0  0  0  0  0
   27.8520   -1.3880   -2.3410 O   0  0  0  0  0  0  0  0  0  0  0  0
   27.5620   -3.5150    0.7290 C   0  0  0  0  0  0  0  0  0  0  0  0
   28.7010   -3.6410    1.1490 O   0  0  0  0  0  0  0  0  0  0  0  0
   10.5180   -2.4900    1.4750 N   0  0  0  0  0  0  0  0  0  0  0  0
    9.2880   -2.9240    1.3330 N   0  0  0  0  0  0  0  0  0  0  0  0
   -1.2430    0.6770    2.9240 H   0  0  0  0  0  0  0  0  0  0  0  0
    0.0710    1.2800    1.8850 H   0  0  0  0  0  0  0  0  0  0  0  0
    0.3980    0.0090    3.0870 H   0  0  0  0  0  0  0  0  0  0  0  0
   -2.0730   -2.1460    0.9410 H   0  0  0  0  0  0  0  0  0  0  0  0
   -2.4660   -1.1420    2.3570 H   0  0  0  0  0  0  0  0  0  0  0  0
   -2.4910   -0.2760   -0.5860 H   0  0  0  0  0  0  0  0  0  0  0  0
   -2.6520    0.8610    0.7740 H   0  0  0  0  0  0  0  0  0  0  0  0
   -4.5620   -0.6190    1.6150 H   0  0  0  0  0  0  0  0  0  0  0  0
   -3.9840   -2.0950   -0.8900 H   0  0  0  0  0  0  0  0  0  0  0  0
   -5.6990   -1.7350   -0.5820 H   0  0  0  0  0  0  0  0  0  0  0  0
   -4.6800   -5.7230    2.2400 H   0  0  0  0  0  0  0  0  0  0  0  0
   -5.0110   -7.9410    1.2150 H   0  0  0  0  0  0  0  0  0  0  0  0
   -5.5200   -8.1310   -1.1970 H   0  0  0  0  0  0  0  0  0  0  0  0
   -5.6970   -6.0930   -2.5820 H   0  0  0  0  0  0  0  0  0  0  0  0
   -5.3670   -3.8690   -1.5700 H   0  0  0  0  0  0  0  0  0  0  0  0
   -4.7940    0.7820   -1.1080 H   0  0  0  0  0  0  0  0  0  0  0  0
   -6.7320   -0.3900    1.6370 H   0  0  0  0  0  0  0  0  0  0  0  0
   -8.3270    0.9220    2.9710 H   0  0  0  0  0  0  0  0  0  0  0  0
  -10.5790    2.8030    1.6030 H   0  0  0  0  0  0  0  0  0  0  0  0
  -13.7460    5.6430    3.1740 H   0  0  0  0  0  0  0  0  0  0  0  0
  -15.8620    5.6030    1.9220 H   0  0  0  0  0  0  0  0  0  0  0  0
  -17.7160    3.9690    1.6080 H   0  0  0  0  0  0  0  0  0  0  0  0
  -17.7750    5.4300    0.5930 H   0  0  0  0  0  0  0  0  0  0  0  0
  -19.8220    4.0240    0.2330 H   0  0  0  0  0  0  0  0  0  0  0  0
  -18.7920    2.6480   -0.2300 H   0  0  0  0  0  0  0  0  0  0  0  0
  -18.8250    5.2670   -1.6450 H   0  0  0  0  0  0  0  0  0  0  0  0
  -19.7820    3.7480   -3.4380 H   0  0  0  0  0  0  0  0  0  0  0  0
  -20.1560    2.6850   -2.0610 H   0  0  0  0  0  0  0  0  0  0  0  0
  -22.3670    1.8780   -2.2480 H   0  0  0  0  0  0  0  0  0  0  0  0
  -22.4080   -0.3270   -1.1470 H   0  0  0  0  0  0  0  0  0  0  0  0
  -21.9750    1.5730    2.6730 H   0  0  0  0  0  0  0  0  0  0  0  0
  -21.9350    3.7760    1.5720 H   0  0  0  0  0  0  0  0  0  0  0  0
  -23.7370    5.5200   -1.5810 H   0  0  0  0  0  0  0  0  0  0  0  0
  -23.7150    4.9650    0.1110 H   0  0  0  0  0  0  0  0  0  0  0  0
  -21.6570    6.3300    0.5270 H   0  0  0  0  0  0  0  0  0  0  0  0
  -22.9980    7.3590   -0.0290 H   0  0  0  0  0  0  0  0  0  0  0  0
  -22.3210    9.0430   -1.4140 H   0  0  0  0  0  0  0  0  0  0  0  0
  -23.0510    7.9580   -2.6210 H   0  0  0  0  0  0  0  0  0  0  0  0
  -21.4640    8.6980   -2.9360 H   0  0  0  0  0  0  0  0  0  0  0  0
  -20.2920    8.3350   -0.1530 H   0  0  0  0  0  0  0  0  0  0  0  0
  -19.4960    8.0410   -1.7180 H   0  0  0  0  0  0  0  0  0  0  0  0
  -19.5400    6.7560   -0.4870 H   0  0  0  0  0  0  0  0  0  0  0  0
  -20.1920    6.2250   -3.0990 H   0  0  0  0  0  0  0  0  0  0  0  0
  -21.9430    6.0260   -3.3490 H   0  0  0  0  0  0  0  0  0  0  0  0
  -17.5220    2.6600   -2.1970 H   0  0  0  0  0  0  0  0  0  0  0  0
  -17.5190    4.0500   -3.3100 H   0  0  0  0  0  0  0  0  0  0  0  0
  -16.3520    5.4360   -1.5770 H   0  0  0  0  0  0  0  0  0  0  0  0
  -15.4060    3.9730   -1.9410 H   0  0  0  0  0  0  0  0  0  0  0  0
  -14.3690    2.3750   -0.4860 H   0  0  0  0  0  0  0  0  0  0  0  0
  -12.2580    2.4050    0.7790 H   0  0  0  0  0  0  0  0  0  0  0  0
   -7.1900    4.4630    0.8620 H   0  0  0  0  0  0  0  0  0  0  0  0
    1.8600    0.2510    0.3460 H   0  0  0  0  0  0  0  0  0  0  0  0
    1.9830   -0.7860    1.7870 H   0  0  0  0  0  0  0  0  0  0  0  0
    2.5750   -2.7070    0.2860 H   0  0  0  0  0  0  0  0  0  0  0  0
    2.5830   -1.5780   -1.0900 H   0  0  0  0  0  0  0  0  0  0  0  0
    4.3790   -0.2750   -0.0690 H   0  0  0  0  0  0  0  0  0  0  0  0
    4.3130   -1.2750    1.4020 H   0  0  0  0  0  0  0  0  0  0  0  0
    5.1190   -2.2050   -1.3910 H   0  0  0  0  0  0  0  0  0  0  0  0
    4.9570   -3.2700    0.0270 H   0  0  0  0  0  0  0  0  0  0  0  0
    6.6750   -1.8650    1.2240 H   0  0  0  0  0  0  0  0  0  0  0  0
    6.8880   -0.9130   -0.2640 H   0  0  0  0  0  0  0  0  0  0  0  0
    7.5580   -2.9550   -1.5110 H   0  0  0  0  0  0  0  0  0  0  0  0
    7.2570   -3.9580   -0.0720 H   0  0  0  0  0  0  0  0  0  0  0  0
    9.8580   -1.6860   -1.6020 H   0  0  0  0  0  0  0  0  0  0  0  0
   12.9770   -1.7300    0.7700 H   0  0  0  0  0  0  0  0  0  0  0  0
   12.1870   -0.2320    0.2230 H   0  0  0  0  0  0  0  0  0  0  0  0
   14.0330   -1.0850   -2.7740 H   0  0  0  0  0  0  0  0  0  0  0  0
   14.3180   -0.3710   -1.1680 H   0  0  0  0  0  0  0  0  0  0  0  0
   14.5910   -3.3210   -1.9310 H   0  0  0  0  0  0  0  0  0  0  0  0
   14.7340   -2.6960   -0.2710 H   0  0  0  0  0  0  0  0  0  0  0  0
   17.0070   -3.3420   -0.1020 H   0  0  0  0  0  0  0  0  0  0  0  0
   16.9050   -4.0630   -1.7270 H   0  0  0  0  0  0  0  0  0  0  0  0
   18.7160   -1.7070   -1.0580 H   0  0  0  0  0  0  0  0  0  0  0  0
   18.7300   -2.7060   -2.5310 H   0  0  0  0  0  0  0  0  0  0  0  0
   21.0200   -3.3310   -2.1490 H   0  0  0  0  0  0  0  0  0  0  0  0
   21.0160   -2.2680   -0.7220 H   0  0  0  0  0  0  0  0  0  0  0  0
   21.5480   -5.2800   -0.6940 H   0  0  0  0  0  0  0  0  0  0  0  0
   21.5480   -4.2150    0.7320 H   0  0  0  0  0  0  0  0  0  0  0  0
   23.2760   -3.0780   -1.2590 H   0  0  0  0  0  0  0  0  0  0  0  0
   23.2230   -6.4520    0.0890 H   0  0  0  0  0  0  0  0  0  0  0  0
   25.2010   -7.5850    1.0420 H   0  0  0  0  0  0  0  0  0  0  0  0
   27.3170   -6.3340    1.3940 H   0  0  0  0  0  0  0  0  0  0  0  0
   28.9540   -1.3430    0.3350 H   0  0  0  0  0  0  0  0  0  0  0  0
   26.3250    0.2000    0.7770 H   0  0  0  0  0  0  0  0  0  0  0  0
   27.4690   -0.2920    2.0480 H   0  0  0  0  0  0  0  0  0  0  0  0
   29.2710    1.0610    0.9320 H   0  0  0  0  0  0  0  0  0  0  0  0
   27.8830    2.0860    1.3710 H   0  0  0  0  0  0  0  0  0  0  0  0
   27.9200    0.9650   -2.6450 H   0  0  0  0  0  0  0  0  0  0  0  0
  1  2  1  0  0  0  0
  1105  1  0  0  0  0
  1106  1  0  0  0  0
  1107  1  0  0  0  0
  2  3  1  0  0  0  0
  2 62  1  0  0  0  0
  3  4  1  0  0  0  0
  3108  1  0  0  0  0
  3109  1  0  0  0  0
  4  5  1  0  0  0  0
  4110  1  0  0  0  0
  4111  1  0  0  0  0
  5  6  1  0  0  0  0
  5 14  1  0  0  0  0
  5112  1  0  0  0  0
  6  7  1  0  0  0  0
  6113  1  0  0  0  0
  6114  1  0  0  0  0
  7  8  1  0  0  0  0
  8  9  1  0  0  0  0
  8 13  2  0  0  0  0
  9 10  2  0  0  0  0
  9115  1  0  0  0  0
 10 11  1  0  0  0  0
 10116  1  0  0  0  0
 11 12  2  0  0  0  0
 11117  1  0  0  0  0
 12 13  1  0  0  0  0
 12118  1  0  0  0  0
 13119  1  0  0  0  0
 14 15  1  0  0  0  0
 14120  1  0  0  0  0
 15 16  1  0  0  0  0
 15 54  2  0  0  0  0
 16 17  2  0  0  0  0
 16121  1  0  0  0  0
 17 18  1  0  0  0  0
 17122  1  0  0  0  0
 18 19  1  0  0  0  0
 18 53  2  0  0  0  0
 19 20  2  0  0  0  0
 19 21  2  0  0  0  0
 19 22  1  0  0  0  0
 22 23  1  0  0  0  0
 22123  1  0  0  0  0
 23 24  2  0  0  0  0
 23 25  1  0  0  0  0
 25 26  1  0  0  0  0
 25 52  2  0  0  0  0
 26 27  2  0  0  0  0
 26124  1  0  0  0  0
 27 28  1  0  0  0  0
 27125  1  0  0  0  0
 28 29  1  0  0  0  0
 28 51  2  0  0  0  0
 29 30  1  0  0  0  0
 29 50  1  0  0  0  0
 30 31  1  0  0  0  0
 30126  1  0  0  0  0
 30127  1  0  0  0  0
 31 32  1  0  0  0  0
 31128  1  0  0  0  0
 31129  1  0  0  0  0
 32 33  1  0  0  0  0
 32 49  1  0  0  0  0
 32130  1  0  0  0  0
 33 34  1  0  0  0  0
 33131  1  0  0  0  0
 33132  1  0  0  0  0
 34 35  2  0  0  0  0
 34 48  1  0  0  0  0
 35 36  1  0  0  0  0
 35 43  1  0  0  0  0
 36 37  1  0  0  0  0
 36 42  2  0  0  0  0
 37 38  2  0  0  0  0
 37133  1  0  0  0  0
 38 39  1  0  0  0  0
 38134  1  0  0  0  0
 39 40  1  0  0  0  0
 39 41  2  0  0  0  0
 41 42  1  0  0  0  0
 41135  1  0  0  0  0
 42136  1  0  0  0  0
 43 44  1  0  0  0  0
 43137  1  0  0  0  0
 43138  1  0  0  0  0
 44 45  1  0  0  0  0
 44139  1  0  0  0  0
 44140  1  0  0  0  0
 45 46  1  0  0  0  0
 45 47  1  0  0  0  0
 45 48  1  0  0  0  0
 46141  1  0  0  0  0
 46142  1  0  0  0  0
 46143  1  0  0  0  0
 47144  1  0  0  0  0
 47145  1  0  0  0  0
 47146  1  0  0  0  0
 48147  1  0  0  0  0
 48148  1  0  0  0  0
 49 50  1  0  0  0  0
 49149  1  0  0  0  0
 49150  1  0  0  0  0
 50151  1  0  0  0  0
 50152  1  0  0  0  0
 51 52  1  0  0  0  0
 51153  1  0  0  0  0
 52154  1  0  0  0  0
 53 54  1  0  0  0  0
 53155  1  0  0  0  0
 54 55  1  0  0  0  0
 55 56  2  0  0  0  0
 55 57  2  0  0  0  0
 55 58  1  0  0  0  0
 58 59  1  0  0  0  0
 58 60  1  0  0  0  0
 58 61  1  0  0  0  0
 62 63  2  0  0  0  0
 62 64  1  0  0  0  0
 64 65  1  0  0  0  0
 64156  1  0  0  0  0
 64157  1  0  0  0  0
 65 66  1  0  0  0  0
 65158  1  0  0  0  0
 65159  1  0  0  0  0
 66 67  1  0  0  0  0
 66160  1  0  0  0  0
 66161  1  0  0  0  0
 67 68  1  0  0  0  0
 67162  1  0  0  0  0
 67163  1  0  0  0  0
 68 69  1  0  0  0  0
 68164  1  0  0  0  0
 68165  1  0  0  0  0
 69 70  1  0  0  0  0
 69166  1  0  0  0  0
 69167  1  0  0  0  0
 70 71  1  0  0  0  0
 70104  1  0  0  0  0
 71 72  2  0  0  0  0
 71168  1  0  0  0  0
 72 73  1  0  0  0  0
 72103  1  0  0  0  0
 73 74  1  0  0  0  0
 73169  1  0  0  0  0
 73170  1  0  0  0  0
 74 75  1  0  0  0  0
 75 76  1  0  0  0  0
 75171  1  0  0  0  0
 75172  1  0  0  0  0
 76 77  1  0  0  0  0
 76173  1  0  0  0  0
 76174  1  0  0  0  0
 77 78  1  0  0  0  0
 78 79  1  0  0  0  0
 78175  1  0  0  0  0
 78176  1  0  0  0  0
 79 80  1  0  0  0  0
 79177  1  0  0  0  0
 79178  1  0  0  0  0
 80 81  1  0  0  0  0
 81 82  1  0  0  0  0
 81179  1  0  0  0  0
 81180  1  0  0  0  0
 82 83  1  0  0  0  0
 82181  1  0  0  0  0
 82182  1  0  0  0  0
 83 84  1  0  0  0  0
 83183  1  0  0  0  0
 84 85  1  0  0  0  0
 84 89  2  0  0  0  0
 85 86  2  0  0  0  0
 85184  1  0  0  0  0
 86 87  1  0  0  0  0
 86185  1  0  0  0  0
 87 88  2  0  0  0  0
 87186  1  0  0  0  0
 88 89  1  0  0  0  0
 88101  1  0  0  0  0
 89 90  1  0  0  0  0
 90 91  2  0  0  0  0
 90 92  1  0  0  0  0
 92 93  1  0  0  0  0
 92101  1  0  0  0  0
 93 94  1  0  0  0  0
 93 99  1  0  0  0  0
 93187  1  0  0  0  0
 94 95  1  0  0  0  0
 94188  1  0  0  0  0
 94189  1  0  0  0  0
 95 96  1  0  0  0  0
 95190  1  0  0  0  0
 95191  1  0  0  0  0
 96 97  2  0  0  0  0
 96 98  1  0  0  0  0
 98 99  1  0  0  0  0
 98192  1  0  0  0  0
 99100  2  0  0  0  0
101102  2  0  0  0  0
103104  2  0  0  0  0
M  CHG  1  32   1
M  END
>  <Compound ID>
661

>  <Uniprot>
Q07817

>  <Target>
BCL-xL

>  <E3 ligase>
CRBN

>  <IC50 (nM, Cellular activities)>
179

>  <Assay (Cellular activities, IC50)>
Inhibit viability of MOLT-4 cells

>  <Article DOI>
10.1016/j.ejmech.2020.112186

>  <Molecular Weight>
1515.2111

>  <Exact Mass>
1513.5288

>  <XLogP3>
10.18

>  <Heavy Atom Count>
104

>  <Ring Count>
10

>  <Hydrogen Bond Acceptor Count>
21

>  <Hydrogen Bond Donor Count>
4

>  <Rotatable Bond Count>
36

>  <Topological Polar Surface Area>
290.17999

>  <Molecular Formula>
C73H87ClF3N11O13S3

>  <InChI>
InChI=1S/C73H87ClF3N11O13S3/c1-72(2)31-29-59(50-17-21-53(74)22-18-50)52(45-72)46-85-35-37-86(38-36-85)56-23-19-51(20-24-56)68(91)82-104(97,98)58-25-26-61(64(44-58)103(95,96)73(75,76)77)79-54(49-102-57-12-7-6-8-13-57)30-34-84(3)66(90)16-9-4-5-10-33-87-47-55(81-83-87)48-101-43-42-100-41-40-99-39-32-78-62-15-11-14-60-67(62)71(94)88(70(60)93)63-27-28-65(89)80-69(63)92/h6-8,11-15,17-26,44,47,54,63,78-79H,4-5,9-10,16,27-43,45-46,48-49H2,1-3H3,(H,82,91)(H,80,89,92)/t54-,63?/m1/s1

>  <InChI Key>
OAKXZIGOPMXDGW-WNIUGPFTSA-N

$$$$
662
  MOE2018           3D

187196  0  0  1  0  0  0  0  0999 V2000
    2.7990    0.4840    3.0300 C   0  0  0  0  0  0  0  0  0  0  0  0
    3.0590    1.2030    1.7550 N   0  3  1  0  0  0  0  0  0  0  0  0
    4.0550    0.4380    0.9840 C   0  0  0  0  0  0  0  0  0  0  0  0
    5.4100    1.0230    1.4130 C   0  0  0  0  0  0  0  0  0  0  0  0
    6.4960    0.2500    0.6480 C   0  0  0  0  0  0  0  0  0  0  0  0
    7.8740    0.8440    0.9730 C   0  0  0  0  0  0  0  0  0  0  0  0
    8.9950    0.0810    0.2540 C   0  0  0  0  0  0  0  0  0  0  0  0
   10.3440    0.7620    0.5340 C   0  0  0  0  0  0  0  0  0  0  0  0
   11.4380   -0.0520   -0.1910 C   0  0  0  0  0  0  0  0  0  0  0  0
   12.6850    0.6750    0.0150 N   0  0  0  0  0  0  0  0  0  0  0  0
   13.5210    0.5620    1.0460 C   0  0  0  0  0  0  0  0  0  0  0  0
   14.4870    1.4720    0.8180 C   0  0  0  0  0  0  0  0  0  0  0  0
   15.6810    1.7770    1.6990 C   0  0  0  0  0  0  0  0  0  0  0  0
   16.4750    0.5520    1.7820 O   0  0  0  0  0  0  0  0  0  0  0  0
   17.0960    0.0970    0.5440 C   0  0  0  0  0  0  0  0  0  0  0  0
   18.2290   -0.8260    0.9810 C   0  0  0  0  0  0  0  0  0  0  0  0
   18.9630   -1.2450   -0.1620 O   0  0  0  0  0  0  0  0  0  0  0  0
   20.1260   -1.9850    0.1850 C   0  0  0  0  0  0  0  0  0  0  0  0
   20.8680   -2.3950   -1.0890 C   0  0  0  0  0  0  0  0  0  0  0  0
   22.1710   -2.9250   -0.6530 N   0  0  0  0  0  0  0  0  0  0  0  0
   23.3440   -2.1760   -0.5610 C   0  0  0  0  0  0  0  0  0  0  0  0
   23.3380   -0.7710   -0.5830 C   0  0  0  0  0  0  0  0  0  0  0  0
   24.5380   -0.0630   -0.4830 C   0  0  0  0  0  0  0  0  0  0  0  0
   25.7560   -0.7390   -0.3580 C   0  0  0  0  0  0  0  0  0  0  0  0
   25.7470   -2.1330   -0.3340 C   0  0  0  0  0  0  0  0  0  0  0  0
   24.5670   -2.8440   -0.4320 C   0  0  0  0  0  0  0  0  0  0  0  0
   24.8890   -4.2440   -0.3830 C   0  0  0  0  0  0  0  0  0  0  0  0
   24.1530   -5.2220   -0.4650 O   0  0  0  0  0  0  0  0  0  0  0  0
   26.2660   -4.3610   -0.2490 N   0  0  0  0  0  0  0  0  0  0  0  0
   27.0410   -5.5920   -0.0350 C   0  0  2  0  0  0  0  0  0  0  0  0
   26.9440   -6.4520   -1.3210 C   0  0  0  0  0  0  0  0  0  0  0  0
   27.6910   -7.7760   -1.0340 C   0  0  0  0  0  0  0  0  0  0  0  0
   26.9930   -8.4690    0.1220 C   0  0  0  0  0  0  0  0  0  0  0  0
   26.8630   -9.6630    0.1970 O   0  0  0  0  0  0  0  0  0  0  0  0
   26.4970   -7.7370    1.1520 N   0  0  0  0  0  0  0  0  0  0  0  0
   26.4810   -6.3760    1.1640 C   0  0  0  0  0  0  0  0  0  0  0  0
   26.0540   -5.8660    2.1760 O   0  0  0  0  0  0  0  0  0  0  0  0
   26.8180   -3.0940   -0.2200 C   0  0  0  0  0  0  0  0  0  0  0  0
   28.0220   -2.9120   -0.1250 O   0  0  0  0  0  0  0  0  0  0  0  0
   14.2310    2.1180   -0.3380 N   0  0  0  0  0  0  0  0  0  0  0  0
   13.1200    1.6230   -0.8260 N   0  0  0  0  0  0  0  0  0  0  0  0
    1.8100    1.2160    0.9720 C   0  0  0  0  0  0  0  0  0  0  0  0
    1.0630    2.4860    1.3910 C   0  0  0  0  0  0  0  0  0  0  0  0
   -0.2740    2.4700    0.6240 C   0  0  2  0  0  0  0  0  0  0  0  0
   -0.9280    3.8690    0.6110 C   0  0  0  0  0  0  0  0  0  0  0  0
    0.1280    4.9180   -0.4550 S   0  0  0  0  0  0  0  0  0  0  0  0
   -0.5620    6.5290   -0.4470 C   0  0  0  0  0  0  0  0  0  0  0  0
    0.1060    7.5380   -1.1500 C   0  0  0  0  0  0  0  0  0  0  0  0
   -0.3950    8.8350   -1.1670 C   0  0  0  0  0  0  0  0  0  0  0  0
   -1.5680    9.1410   -0.4850 C   0  0  0  0  0  0  0  0  0  0  0  0
   -2.2430    8.1430    0.2120 C   0  0  0  0  0  0  0  0  0  0  0  0
   -1.7480    6.8440    0.2330 C   0  0  0  0  0  0  0  0  0  0  0  0
   -1.1520    1.5150    1.3580 N   0  0  0  0  0  0  0  0  0  0  0  0
   -2.3570    1.1990    0.7220 C   0  0  0  0  0  0  0  0  0  0  0  0
   -3.4800    1.9520    1.0710 C   0  0  0  0  0  0  0  0  0  0  0  0
   -4.6880    1.7390    0.4250 C   0  0  0  0  0  0  0  0  0  0  0  0
   -4.8100    0.7560   -0.5600 C   0  0  0  0  0  0  0  0  0  0  0  0
   -6.3810    0.5200   -1.4320 S   0  0  0  0  0  0  0  0  0  0  0  0
   -6.1460   -0.1670   -2.6440 O   0  0  0  0  0  0  0  0  0  0  0  0
   -7.0370    1.7700   -1.5440 O   0  0  0  0  0  0  0  0  0  0  0  0
   -7.2820   -0.4660   -0.4710 N   0  0  0  0  0  0  0  0  0  0  0  0
   -7.9550    0.2220    0.4590 C   0  0  0  0  0  0  0  0  0  0  0  0
   -7.3180    0.3560    1.4910 O   0  0  0  0  0  0  0  0  0  0  0  0
   -9.3010    0.7560    0.2220 C   0  0  0  0  0  0  0  0  0  0  0  0
   -9.9500    1.4900    1.2300 C   0  0  0  0  0  0  0  0  0  0  0  0
  -11.2180    2.0180    1.0290 C   0  0  0  0  0  0  0  0  0  0  0  0
  -11.8680    1.8200   -0.1960 C   0  0  0  0  0  0  0  0  0  0  0  0
  -13.1390    2.3520   -0.4520 N   0  0  0  0  0  0  0  0  0  0  0  0
  -13.1760    3.3780   -1.5260 C   0  0  0  0  0  0  0  0  0  0  0  0
  -14.6430    3.4660   -2.0260 C   0  0  0  0  0  0  0  0  0  0  0  0
  -15.5260    3.8360   -0.8740 N   0  3  0  0  0  0  0  0  0  0  0  0
  -16.9010    3.9510   -1.3610 C   0  0  0  0  0  0  0  0  0  0  0  0
  -17.5810    4.7650   -0.2790 C   0  0  0  0  0  0  0  0  0  0  0  0
  -18.4160    4.2030    0.6330 C   0  0  0  0  0  0  0  0  0  0  0  0
  -18.7450    2.7810    0.6310 C   0  0  0  0  0  0  0  0  0  0  0  0
  -18.3990    1.9660    1.7180 C   0  0  0  0  0  0  0  0  0  0  0  0
  -18.6830    0.6060    1.7030 C   0  0  0  0  0  0  0  0  0  0  0  0
  -19.3300    0.0430    0.6030 C   0  0  0  0  0  0  0  0  0  0  0  0
  -19.6690   -1.6560    0.5730 Cl  0  0  0  0  0  0  0  0  0  0  0  0
  -19.7060    0.8480   -0.4740 C   0  0  0  0  0  0  0  0  0  0  0  0
  -19.4200    2.2070   -0.4540 C   0  0  0  0  0  0  0  0  0  0  0  0
  -19.0660    4.9920    1.7660 C   0  0  0  0  0  0  0  0  0  0  0  0
  -18.9940    6.5080    1.4940 C   0  0  0  0  0  0  0  0  0  0  0  0
  -17.5730    6.9000    1.0420 C   0  0  0  0  0  0  0  0  0  0  0  0
  -16.4710    6.5290    2.0580 C   0  0  0  0  0  0  0  0  0  0  0  0
  -17.5430    8.4310    0.8950 C   0  0  0  0  0  0  0  0  0  0  0  0
  -17.2950    6.2660   -0.3380 C   0  0  0  0  0  0  0  0  0  0  0  0
  -15.4760    2.7200    0.1300 C   0  0  0  0  0  0  0  0  0  0  0  0
  -14.0370    2.6270    0.6970 C   0  0  0  0  0  0  0  0  0  0  0  0
  -11.2430    1.0790   -1.2040 C   0  0  0  0  0  0  0  0  0  0  0  0
   -9.9750    0.5540   -0.9960 C   0  0  0  0  0  0  0  0  0  0  0  0
   -3.6880   -0.0230   -0.8680 C   0  0  0  0  0  0  0  0  0  0  0  0
   -2.4610    0.1620   -0.2180 C   0  0  0  0  0  0  0  0  0  0  0  0
   -1.0970   -0.9800   -0.5350 S   0  0  0  0  0  0  0  0  0  0  0  0
    0.0960   -0.2440   -0.8220 O   0  0  0  0  0  0  0  0  0  0  0  0
   -1.5080   -1.8830   -1.5550 O   0  0  0  0  0  0  0  0  0  0  0  0
   -0.9140   -1.9050    1.1150 C   0  0  0  0  0  0  0  0  0  0  0  0
   -2.0840   -2.1090    1.7650 F   0  0  0  0  0  0  0  0  0  0  0  0
   -0.3640   -3.1350    1.0040 F   0  0  0  0  0  0  0  0  0  0  0  0
   -0.1180   -1.2750    2.0320 F   0  0  0  0  0  0  0  0  0  0  0  0
    3.7110    0.4620    3.6270 H   0  0  0  0  0  0  0  0  0  0  0  0
    2.4810   -0.5360    2.8140 H   0  0  0  0  0  0  0  0  0  0  0  0
    2.0140    0.9990    3.5840 H   0  0  0  0  0  0  0  0  0  0  0  0
    3.3860    2.1410    1.9410 H   0  0  0  0  0  0  0  0  0  0  0  0
    3.9990   -0.6230    1.2290 H   0  0  0  0  0  0  0  0  0  0  0  0
    3.8990    0.5730   -0.0860 H   0  0  0  0  0  0  0  0  0  0  0  0
    5.4570    2.0820    1.1610 H   0  0  0  0  0  0  0  0  0  0  0  0
    5.5480    0.8990    2.4870 H   0  0  0  0  0  0  0  0  0  0  0  0
    6.4730   -0.7980    0.9450 H   0  0  0  0  0  0  0  0  0  0  0  0
    6.3110    0.3280   -0.4230 H   0  0  0  0  0  0  0  0  0  0  0  0
    8.0400    0.7880    2.0490 H   0  0  0  0  0  0  0  0  0  0  0  0
    7.8950    1.8870    0.6560 H   0  0  0  0  0  0  0  0  0  0  0  0
    8.8040    0.0820   -0.8190 H   0  0  0  0  0  0  0  0  0  0  0  0
    9.0250   -0.9460    0.6170 H   0  0  0  0  0  0  0  0  0  0  0  0
   10.5390    0.7740    1.6060 H   0  0  0  0  0  0  0  0  0  0  0  0
   10.3300    1.7840    0.1560 H   0  0  0  0  0  0  0  0  0  0  0  0
   11.2130   -0.1240   -1.2550 H   0  0  0  0  0  0  0  0  0  0  0  0
   11.5090   -1.0530    0.2340 H   0  0  0  0  0  0  0  0  0  0  0  0
   13.4410   -0.1140    1.8840 H   0  0  0  0  0  0  0  0  0  0  0  0
   15.3470    2.0740    2.6930 H   0  0  0  0  0  0  0  0  0  0  0  0
   16.2750    2.5790    1.2600 H   0  0  0  0  0  0  0  0  0  0  0  0
   16.3760   -0.4450   -0.0680 H   0  0  0  0  0  0  0  0  0  0  0  0
   17.4880    0.9430   -0.0200 H   0  0  0  0  0  0  0  0  0  0  0  0
   17.8140   -1.6980    1.4860 H   0  0  0  0  0  0  0  0  0  0  0  0
   18.8910   -0.2920    1.6630 H   0  0  0  0  0  0  0  0  0  0  0  0
   20.7780   -1.3680    0.8030 H   0  0  0  0  0  0  0  0  0  0  0  0
   19.8370   -2.8770    0.7400 H   0  0  0  0  0  0  0  0  0  0  0  0
   21.0100   -1.5310   -1.7380 H   0  0  0  0  0  0  0  0  0  0  0  0
   20.3070   -3.1630   -1.6220 H   0  0  0  0  0  0  0  0  0  0  0  0
   22.2190   -3.9020   -0.4020 H   0  0  0  0  0  0  0  0  0  0  0  0
   22.4040   -0.2370   -0.6770 H   0  0  0  0  0  0  0  0  0  0  0  0
   24.5250    1.0170   -0.5020 H   0  0  0  0  0  0  0  0  0  0  0  0
   26.6840   -0.1920   -0.2820 H   0  0  0  0  0  0  0  0  0  0  0  0
   28.0810   -5.3440    0.1780 H   0  0  0  0  0  0  0  0  0  0  0  0
   25.9000   -6.6550   -1.5580 H   0  0  0  0  0  0  0  0  0  0  0  0
   27.4120   -5.9310   -2.1560 H   0  0  0  0  0  0  0  0  0  0  0  0
   28.7270   -7.5660   -0.7680 H   0  0  0  0  0  0  0  0  0  0  0  0
   27.6650   -8.4140   -1.9170 H   0  0  0  0  0  0  0  0  0  0  0  0
   26.1200   -8.2280    1.9510 H   0  0  0  0  0  0  0  0  0  0  0  0
    2.0320    1.2420   -0.0950 H   0  0  0  0  0  0  0  0  0  0  0  0
    1.2120    0.3330    1.1980 H   0  0  0  0  0  0  0  0  0  0  0  0
    1.6410    3.3700    1.1240 H   0  0  0  0  0  0  0  0  0  0  0  0
    0.8820    2.4810    2.4660 H   0  0  0  0  0  0  0  0  0  0  0  0
   -0.1200    2.1780   -0.4150 H   0  0  0  0  0  0  0  0  0  0  0  0
   -0.9680    4.2770    1.6210 H   0  0  0  0  0  0  0  0  0  0  0  0
   -1.9370    3.8100    0.2030 H   0  0  0  0  0  0  0  0  0  0  0  0
    1.0170    7.3080   -1.6830 H   0  0  0  0  0  0  0  0  0  0  0  0
    0.1280    9.6070   -1.7110 H   0  0  0  0  0  0  0  0  0  0  0  0
   -1.9540   10.1500   -0.4960 H   0  0  0  0  0  0  0  0  0  0  0  0
   -3.1560    8.3790    0.7390 H   0  0  0  0  0  0  0  0  0  0  0  0
   -2.2780    6.0750    0.7750 H   0  0  0  0  0  0  0  0  0  0  0  0
   -0.8950    1.1230    2.2530 H   0  0  0  0  0  0  0  0  0  0  0  0
   -3.4070    2.7010    1.8450 H   0  0  0  0  0  0  0  0  0  0  0  0
   -5.5460    2.3410    0.6870 H   0  0  0  0  0  0  0  0  0  0  0  0
   -7.3220   -1.4700   -0.5710 H   0  0  0  0  0  0  0  0  0  0  0  0
   -9.4540    1.6460    2.1770 H   0  0  0  0  0  0  0  0  0  0  0  0
  -11.7020    2.5800    1.8140 H   0  0  0  0  0  0  0  0  0  0  0  0
  -12.8570    4.3430   -1.1320 H   0  0  0  0  0  0  0  0  0  0  0  0
  -12.5190    3.0850   -2.3450 H   0  0  0  0  0  0  0  0  0  0  0  0
  -14.9510    2.5010   -2.4280 H   0  0  0  0  0  0  0  0  0  0  0  0
  -14.7190    4.2250   -2.8040 H   0  0  0  0  0  0  0  0  0  0  0  0
  -15.2230    4.7060   -0.4600 H   0  0  0  0  0  0  0  0  0  0  0  0
  -16.9350    4.4690   -2.3200 H   0  0  0  0  0  0  0  0  0  0  0  0
  -17.3640    2.9690   -1.4620 H   0  0  0  0  0  0  0  0  0  0  0  0
  -17.9070    2.4000    2.5760 H   0  0  0  0  0  0  0  0  0  0  0  0
  -18.4030   -0.0140    2.5420 H   0  0  0  0  0  0  0  0  0  0  0  0
  -20.2180    0.4150   -1.3210 H   0  0  0  0  0  0  0  0  0  0  0  0
  -19.7210    2.8280   -1.2840 H   0  0  0  0  0  0  0  0  0  0  0  0
  -20.1110    4.6950    1.8540 H   0  0  0  0  0  0  0  0  0  0  0  0
  -18.5460    4.7720    2.6980 H   0  0  0  0  0  0  0  0  0  0  0  0
  -19.2440    7.0500    2.4060 H   0  0  0  0  0  0  0  0  0  0  0  0
  -19.7060    6.7680    0.7100 H   0  0  0  0  0  0  0  0  0  0  0  0
  -16.6940    6.9900    3.0200 H   0  0  0  0  0  0  0  0  0  0  0  0
  -15.5080    6.8890    1.6970 H   0  0  0  0  0  0  0  0  0  0  0  0
  -16.4330    5.4460    2.1740 H   0  0  0  0  0  0  0  0  0  0  0  0
  -17.7380    8.8930    1.8630 H   0  0  0  0  0  0  0  0  0  0  0  0
  -18.3070    8.7430    0.1830 H   0  0  0  0  0  0  0  0  0  0  0  0
  -16.5620    8.7420    0.5350 H   0  0  0  0  0  0  0  0  0  0  0  0
  -16.2510    6.4260   -0.6070 H   0  0  0  0  0  0  0  0  0  0  0  0
  -17.9380    6.7290   -1.0860 H   0  0  0  0  0  0  0  0  0  0  0  0
  -16.1770    2.9230    0.9400 H   0  0  0  0  0  0  0  0  0  0  0  0
  -15.7420    1.7800   -0.3530 H   0  0  0  0  0  0  0  0  0  0  0  0
  -13.9720    1.8190    1.4250 H   0  0  0  0  0  0  0  0  0  0  0  0
  -13.7600    3.5680    1.1730 H   0  0  0  0  0  0  0  0  0  0  0  0
  -11.7470    0.9150   -2.1450 H   0  0  0  0  0  0  0  0  0  0  0  0
   -9.5000   -0.0170   -1.7800 H   0  0  0  0  0  0  0  0  0  0  0  0
   -3.7710   -0.7870   -1.6270 H   0  0  0  0  0  0  0  0  0  0  0  0
  1  2  1  0  0  0  0
  1101  1  0  0  0  0
  1102  1  0  0  0  0
  1103  1  0  0  0  0
  2  3  1  0  0  0  0
  2 42  1  0  0  0  0
  2104  1  0  0  0  0
  3  4  1  0  0  0  0
  3105  1  0  0  0  0
  3106  1  0  0  0  0
  4  5  1  0  0  0  0
  4107  1  0  0  0  0
  4108  1  0  0  0  0
  5  6  1  0  0  0  0
  5109  1  0  0  0  0
  5110  1  0  0  0  0
  6  7  1  0  0  0  0
  6111  1  0  0  0  0
  6112  1  0  0  0  0
  7  8  1  0  0  0  0
  7113  1  0  0  0  0
  7114  1  0  0  0  0
  8  9  1  0  0  0  0
  8115  1  0  0  0  0
  8116  1  0  0  0  0
  9 10  1  0  0  0  0
  9117  1  0  0  0  0
  9118  1  0  0  0  0
 10 11  1  0  0  0  0
 10 41  1  0  0  0  0
 11 12  2  0  0  0  0
 11119  1  0  0  0  0
 12 13  1  0  0  0  0
 12 40  1  0  0  0  0
 13 14  1  0  0  0  0
 13120  1  0  0  0  0
 13121  1  0  0  0  0
 14 15  1  0  0  0  0
 15 16  1  0  0  0  0
 15122  1  0  0  0  0
 15123  1  0  0  0  0
 16 17  1  0  0  0  0
 16124  1  0  0  0  0
 16125  1  0  0  0  0
 17 18  1  0  0  0  0
 18 19  1  0  0  0  0
 18126  1  0  0  0  0
 18127  1  0  0  0  0
 19 20  1  0  0  0  0
 19128  1  0  0  0  0
 19129  1  0  0  0  0
 20 21  1  0  0  0  0
 20130  1  0  0  0  0
 21 22  1  0  0  0  0
 21 26  2  0  0  0  0
 22 23  2  0  0  0  0
 22131  1  0  0  0  0
 23 24  1  0  0  0  0
 23132  1  0  0  0  0
 24 25  2  0  0  0  0
 24133  1  0  0  0  0
 25 26  1  0  0  0  0
 25 38  1  0  0  0  0
 26 27  1  0  0  0  0
 27 28  2  0  0  0  0
 27 29  1  0  0  0  0
 29 30  1  0  0  0  0
 29 38  1  0  0  0  0
 30 31  1  0  0  0  0
 30 36  1  0  0  0  0
 30134  1  0  0  0  0
 31 32  1  0  0  0  0
 31135  1  0  0  0  0
 31136  1  0  0  0  0
 32 33  1  0  0  0  0
 32137  1  0  0  0  0
 32138  1  0  0  0  0
 33 34  2  0  0  0  0
 33 35  1  0  0  0  0
 35 36  1  0  0  0  0
 35139  1  0  0  0  0
 36 37  2  0  0  0  0
 38 39  2  0  0  0  0
 40 41  2  0  0  0  0
 42 43  1  0  0  0  0
 42140  1  0  0  0  0
 42141  1  0  0  0  0
 43 44  1  0  0  0  0
 43142  1  0  0  0  0
 43143  1  0  0  0  0
 44 45  1  0  0  0  0
 44 53  1  0  0  0  0
 44144  1  0  0  0  0
 45 46  1  0  0  0  0
 45145  1  0  0  0  0
 45146  1  0  0  0  0
 46 47  1  0  0  0  0
 47 48  1  0  0  0  0
 47 52  2  0  0  0  0
 48 49  2  0  0  0  0
 48147  1  0  0  0  0
 49 50  1  0  0  0  0
 49148  1  0  0  0  0
 50 51  2  0  0  0  0
 50149  1  0  0  0  0
 51 52  1  0  0  0  0
 51150  1  0  0  0  0
 52151  1  0  0  0  0
 53 54  1  0  0  0  0
 53152  1  0  0  0  0
 54 55  1  0  0  0  0
 54 93  2  0  0  0  0
 55 56  2  0  0  0  0
 55153  1  0  0  0  0
 56 57  1  0  0  0  0
 56154  1  0  0  0  0
 57 58  1  0  0  0  0
 57 92  2  0  0  0  0
 58 59  2  0  0  0  0
 58 60  2  0  0  0  0
 58 61  1  0  0  0  0
 61 62  1  0  0  0  0
 61155  1  0  0  0  0
 62 63  2  0  0  0  0
 62 64  1  0  0  0  0
 64 65  1  0  0  0  0
 64 91  2  0  0  0  0
 65 66  2  0  0  0  0
 65156  1  0  0  0  0
 66 67  1  0  0  0  0
 66157  1  0  0  0  0
 67 68  1  0  0  0  0
 67 90  2  0  0  0  0
 68 69  1  0  0  0  0
 68 89  1  0  0  0  0
 69 70  1  0  0  0  0
 69158  1  0  0  0  0
 69159  1  0  0  0  0
 70 71  1  0  0  0  0
 70160  1  0  0  0  0
 70161  1  0  0  0  0
 71 72  1  0  0  0  0
 71 88  1  0  0  0  0
 71162  1  0  0  0  0
 72 73  1  0  0  0  0
 72163  1  0  0  0  0
 72164  1  0  0  0  0
 73 74  2  0  0  0  0
 73 87  1  0  0  0  0
 74 75  1  0  0  0  0
 74 82  1  0  0  0  0
 75 76  1  0  0  0  0
 75 81  2  0  0  0  0
 76 77  2  0  0  0  0
 76165  1  0  0  0  0
 77 78  1  0  0  0  0
 77166  1  0  0  0  0
 78 79  1  0  0  0  0
 78 80  2  0  0  0  0
 80 81  1  0  0  0  0
 80167  1  0  0  0  0
 81168  1  0  0  0  0
 82 83  1  0  0  0  0
 82169  1  0  0  0  0
 82170  1  0  0  0  0
 83 84  1  0  0  0  0
 83171  1  0  0  0  0
 83172  1  0  0  0  0
 84 85  1  0  0  0  0
 84 86  1  0  0  0  0
 84 87  1  0  0  0  0
 85173  1  0  0  0  0
 85174  1  0  0  0  0
 85175  1  0  0  0  0
 86176  1  0  0  0  0
 86177  1  0  0  0  0
 86178  1  0  0  0  0
 87179  1  0  0  0  0
 87180  1  0  0  0  0
 88 89  1  0  0  0  0
 88181  1  0  0  0  0
 88182  1  0  0  0  0
 89183  1  0  0  0  0
 89184  1  0  0  0  0
 90 91  1  0  0  0  0
 90185  1  0  0  0  0
 91186  1  0  0  0  0
 92 93  1  0  0  0  0
 92187  1  0  0  0  0
 93 94  1  0  0  0  0
 94 95  2  0  0  0  0
 94 96  2  0  0  0  0
 94 97  1  0  0  0  0
 97 98  1  0  0  0  0
 97 99  1  0  0  0  0
 97100  1  0  0  0  0
M  CHG  1   2   1
M  CHG  1  71   1
M  END
>  <Compound ID>
662

>  <Uniprot>
Q07817

>  <Target>
BCL-xL

>  <E3 ligase>
CRBN

>  <IC50 (nM, Cellular activities)>
29.2/62.2/61.7

>  <Assay (Cellular activities, IC50)>
Inhibit viability of MOLT-4/RS4;11/H146 cells

>  <Article DOI>
10.1016/j.ejmech.2020.112186

>  <Molecular Weight>
1457.175

>  <Exact Mass>
1455.5233

>  <XLogP3>
11.29

>  <Heavy Atom Count>
100

>  <Ring Count>
10

>  <Hydrogen Bond Acceptor Count>
20

>  <Hydrogen Bond Donor Count>
4

>  <Rotatable Bond Count>
34

>  <Topological Polar Surface Area>
263.88

>  <Molecular Formula>
C71H85ClF3N11O11S3

>  <InChI>
InChI=1S/C71H85ClF3N11O11S3/c1-70(2)31-29-58(49-17-21-52(72)22-18-49)51(44-70)45-83-36-38-84(39-37-83)55-23-19-50(20-24-55)66(88)80-100(94,95)57-25-26-60(63(43-57)99(92,93)71(73,74)75)77-53(48-98-56-13-8-7-9-14-56)30-35-82(3)33-10-5-4-6-11-34-85-46-54(79-81-85)47-97-42-41-96-40-32-76-61-16-12-15-59-65(61)69(91)86(68(59)90)62-27-28-64(87)78-67(62)89/h7-9,12-26,43,46,53,62,76-77H,4-6,10-11,27-42,44-45,47-48H2,1-3H3,(H,80,88)(H,78,87,89)/t53-,62?/m1/s1

>  <InChI Key>
ZFKTXHMPLCYQMU-YOHLDDLQSA-N

>  <DC50 (nM)>
6.3000002

>  <Assay (DC50/Dmax)>
Degradation of BCL-xL in MOLT-4 cells after 16 h treatment

$$$$
663
  MOE2018           3D

194203  0  0  1  0  0  0  0  0999 V2000
    1.7140   -1.1990    3.1870 C   0  0  0  0  0  0  0  0  0  0  0  0
    1.8950   -0.5550    1.8550 N   0  3  1  0  0  0  0  0  0  0  0  0
    2.8210   -1.3780    1.0540 C   0  0  0  0  0  0  0  0  0  0  0  0
    4.2330   -0.9590    1.4950 C   0  0  0  0  0  0  0  0  0  0  0  0
    5.2240   -1.8000    0.6730 C   0  0  0  0  0  0  0  0  0  0  0  0
    6.6570   -1.5130    1.1410 C   0  0  0  0  0  0  0  0  0  0  0  0
    7.6780   -2.3430    0.3510 C   0  0  0  0  0  0  0  0  0  0  0  0
    9.0860   -2.1040    0.9200 C   0  0  0  0  0  0  0  0  0  0  0  0
   10.0740   -2.9510    0.0890 C   0  0  0  0  0  0  0  0  0  0  0  0
   11.3790   -2.7770    0.7130 N   0  0  0  0  0  0  0  0  0  0  0  0
   12.2640   -1.8130    0.4660 C   0  0  0  0  0  0  0  0  0  0  0  0
   13.2860   -2.0440    1.3120 C   0  0  0  0  0  0  0  0  0  0  0  0
   14.5570   -1.2370    1.4790 C   0  0  0  0  0  0  0  0  0  0  0  0
   14.6900   -0.3930    0.2860 O   0  0  0  0  0  0  0  0  0  0  0  0
   15.8860    0.4290    0.1960 C   0  0  0  0  0  0  0  0  0  0  0  0
   16.9440   -0.4290   -0.5010 C   0  0  0  0  0  0  0  0  0  0  0  0
   18.1760    0.2770   -0.5020 O   0  0  0  0  0  0  0  0  0  0  0  0
   19.2300   -0.4700   -1.0930 C   0  0  0  0  0  0  0  0  0  0  0  0
   20.5100    0.3570   -1.0320 C   0  0  0  0  0  0  0  0  0  0  0  0
   21.5940   -0.4250   -1.5210 O   0  0  0  0  0  0  0  0  0  0  0  0
   22.8530    0.2420   -1.4630 C   0  0  0  0  0  0  0  0  0  0  0  0
   23.0450    1.2010   -2.6480 C   0  0  0  0  0  0  0  0  0  0  0  0
   24.3100    1.9210   -2.4130 N   0  0  0  0  0  0  0  0  0  0  0  0
   24.4350    2.9370   -1.4650 C   0  0  0  0  0  0  0  0  0  0  0  0
   23.3740    3.8010   -1.1490 C   0  0  0  0  0  0  0  0  0  0  0  0
   23.5520    4.8120   -0.2010 C   0  0  0  0  0  0  0  0  0  0  0  0
   24.7840    4.9810    0.4390 C   0  0  0  0  0  0  0  0  0  0  0  0
   25.8300    4.1190    0.1140 C   0  0  0  0  0  0  0  0  0  0  0  0
   25.6630    3.1120   -0.8170 C   0  0  0  0  0  0  0  0  0  0  0  0
   26.9010    2.3900   -0.9150 C   0  0  0  0  0  0  0  0  0  0  0  0
   27.1880    1.4190   -1.6080 O   0  0  0  0  0  0  0  0  0  0  0  0
   27.8100    2.9800   -0.0470 N   0  0  0  0  0  0  0  0  0  0  0  0
   29.1540    2.4930    0.3010 C   0  0  2  0  0  0  0  0  0  0  0  0
   30.0520    2.6070   -0.9580 C   0  0  0  0  0  0  0  0  0  0  0  0
   31.4270    2.0040   -0.5830 C   0  0  0  0  0  0  0  0  0  0  0  0
   31.2180    0.5490   -0.2070 C   0  0  0  0  0  0  0  0  0  0  0  0
   32.0040   -0.3240   -0.4720 O   0  0  0  0  0  0  0  0  0  0  0  0
   30.1090    0.1780    0.4820 N   0  0  0  0  0  0  0  0  0  0  0  0
   29.0840    1.0290    0.7650 C   0  0  0  0  0  0  0  0  0  0  0  0
   28.1790    0.5610    1.4200 O   0  0  0  0  0  0  0  0  0  0  0  0
   27.1890    4.0370    0.5940 C   0  0  0  0  0  0  0  0  0  0  0  0
   27.7720    4.7340    1.4100 O   0  0  0  0  0  0  0  0  0  0  0  0
   13.0110   -3.1340    2.0580 N   0  0  0  0  0  0  0  0  0  0  0  0
   11.8350   -3.5800    1.6840 N   0  0  0  0  0  0  0  0  0  0  0  0
    0.5910   -0.5780    1.1660 C   0  0  0  0  0  0  0  0  0  0  0  0
   -0.1370    0.7050    1.5820 C   0  0  0  0  0  0  0  0  0  0  0  0
   -1.5780    0.5660    1.0520 C   0  0  2  0  0  0  0  0  0  0  0  0
   -2.3280    1.9140    1.0950 C   0  0  0  0  0  0  0  0  0  0  0  0
   -1.5310    2.9790   -0.1610 S   0  0  0  0  0  0  0  0  0  0  0  0
   -2.3300    4.5370   -0.1060 C   0  0  0  0  0  0  0  0  0  0  0  0
   -3.4450    4.7900    0.7070 C   0  0  0  0  0  0  0  0  0  0  0  0
   -4.0340    6.0500    0.7140 C   0  0  0  0  0  0  0  0  0  0  0  0
   -3.5250    7.0680   -0.0870 C   0  0  0  0  0  0  0  0  0  0  0  0
   -2.4220    6.8230   -0.8990 C   0  0  0  0  0  0  0  0  0  0  0  0
   -1.8280    5.5660   -0.9100 C   0  0  0  0  0  0  0  0  0  0  0  0
   -2.2480   -0.4040    1.9660 N   0  0  0  0  0  0  0  0  0  0  0  0
   -3.5240   -0.8240    1.5790 C   0  0  0  0  0  0  0  0  0  0  0  0
   -4.6080   -0.1400    2.1340 C   0  0  0  0  0  0  0  0  0  0  0  0
   -5.9030   -0.4710    1.7650 C   0  0  0  0  0  0  0  0  0  0  0  0
   -6.1450   -1.5020    0.8550 C   0  0  0  0  0  0  0  0  0  0  0  0
   -7.8410   -1.9090    0.3760 S   0  0  0  0  0  0  0  0  0  0  0  0
   -8.6440   -0.7510    0.5020 O   0  0  0  0  0  0  0  0  0  0  0  0
   -7.8440   -2.5350   -0.8910 O   0  0  0  0  0  0  0  0  0  0  0  0
   -8.3420   -2.9980    1.5020 N   0  0  0  0  0  0  0  0  0  0  0  0
   -9.2580   -3.8590    1.0380 C   0  0  0  0  0  0  0  0  0  0  0  0
   -8.8420   -5.0050    1.0180 O   0  0  0  0  0  0  0  0  0  0  0  0
  -10.6000   -3.4500    0.6170 C   0  0  0  0  0  0  0  0  0  0  0  0
  -11.2140   -2.2930    1.1290 C   0  0  0  0  0  0  0  0  0  0  0  0
  -12.4890   -1.9220    0.7280 C   0  0  0  0  0  0  0  0  0  0  0  0
  -13.1850   -2.7120   -0.1960 C   0  0  0  0  0  0  0  0  0  0  0  0
  -14.4770   -2.3760   -0.6240 N   0  0  0  0  0  0  0  0  0  0  0  0
  -14.6130   -2.0940   -2.0740 C   0  0  0  0  0  0  0  0  0  0  0  0
  -16.1040   -2.3230   -2.4360 C   0  0  0  0  0  0  0  0  0  0  0  0
  -16.9510   -1.3970   -1.6170 N   0  3  0  0  0  0  0  0  0  0  0  0
  -18.3510   -1.6070   -1.9730 C   0  0  0  0  0  0  0  0  0  0  0  0
  -19.0040   -0.3240   -1.5080 C   0  0  0  0  0  0  0  0  0  0  0  0
  -19.7350   -0.2290   -0.3750 C   0  0  0  0  0  0  0  0  0  0  0  0
  -19.9970   -1.3480    0.5240 C   0  0  0  0  0  0  0  0  0  0  0  0
  -20.6810   -2.4850    0.0740 C   0  0  0  0  0  0  0  0  0  0  0  0
  -20.8940   -3.5660    0.9210 C   0  0  0  0  0  0  0  0  0  0  0  0
  -20.4340   -3.5190    2.2370 C   0  0  0  0  0  0  0  0  0  0  0  0
  -20.6820   -4.8720    3.2900 Cl  0  0  0  0  0  0  0  0  0  0  0  0
  -19.7750   -2.3820    2.7060 C   0  0  0  0  0  0  0  0  0  0  0  0
  -19.5640   -1.3040    1.8560 C   0  0  0  0  0  0  0  0  0  0  0  0
  -20.3100    1.1270   -0.0040 C   0  0  0  0  0  0  0  0  0  0  0  0
  -19.1030    2.0860   -0.0530 C   0  0  0  0  0  0  0  0  0  0  0  0
  -18.4800    2.1280   -1.4850 C   0  0  0  0  0  0  0  0  0  0  0  0
  -18.9470    3.4100   -2.1980 C   0  0  0  0  0  0  0  0  0  0  0  0
  -16.9500    2.2280   -1.3370 C   0  0  0  0  0  0  0  0  0  0  0  0
  -18.8470    0.9070   -2.3890 C   0  0  0  0  0  0  0  0  0  0  0  0
  -16.7870   -1.7610   -0.1670 C   0  0  0  0  0  0  0  0  0  0  0  0
  -15.3140   -1.5180    0.2490 C   0  0  0  0  0  0  0  0  0  0  0  0
  -12.5930   -3.8720   -0.7070 C   0  0  0  0  0  0  0  0  0  0  0  0
  -11.3150   -4.2330   -0.3030 C   0  0  0  0  0  0  0  0  0  0  0  0
   -5.0520   -2.2010    0.3270 C   0  0  0  0  0  0  0  0  0  0  0  0
   -3.7360   -1.8990    0.6990 C   0  0  0  0  0  0  0  0  0  0  0  0
   -2.3850   -2.9530    0.1170 S   0  0  0  0  0  0  0  0  0  0  0  0
   -1.3040   -2.1460   -0.3570 O   0  0  0  0  0  0  0  0  0  0  0  0
   -2.9170   -3.8660   -0.8350 O   0  0  0  0  0  0  0  0  0  0  0  0
   -1.8630   -3.8820    1.6890 C   0  0  0  0  0  0  0  0  0  0  0  0
   -1.0210   -3.1790    2.5050 F   0  0  0  0  0  0  0  0  0  0  0  0
   -2.8980   -4.2280    2.4910 F   0  0  0  0  0  0  0  0  0  0  0  0
   -1.2000   -5.0370    1.4600 F   0  0  0  0  0  0  0  0  0  0  0  0
    2.6630   -1.1980    3.7230 H   0  0  0  0  0  0  0  0  0  0  0  0
    1.3750   -2.2260    3.0510 H   0  0  0  0  0  0  0  0  0  0  0  0
    0.9720   -0.6440    3.7610 H   0  0  0  0  0  0  0  0  0  0  0  0
    2.2480    0.3850    1.9640 H   0  0  0  0  0  0  0  0  0  0  0  0
    2.6590   -2.4370    1.2540 H   0  0  0  0  0  0  0  0  0  0  0  0
    2.6810   -1.1830   -0.0090 H   0  0  0  0  0  0  0  0  0  0  0  0
    4.3880    0.1020    1.2980 H   0  0  0  0  0  0  0  0  0  0  0  0
    4.3670   -1.1550    2.5590 H   0  0  0  0  0  0  0  0  0  0  0  0
    5.0030   -2.8580    0.8110 H   0  0  0  0  0  0  0  0  0  0  0  0
    5.1290   -1.5430   -0.3820 H   0  0  0  0  0  0  0  0  0  0  0  0
    6.7410   -1.7600    2.1990 H   0  0  0  0  0  0  0  0  0  0  0  0
    6.8720   -0.4540    0.9970 H   0  0  0  0  0  0  0  0  0  0  0  0
    7.6550   -2.0450   -0.6970 H   0  0  0  0  0  0  0  0  0  0  0  0
    7.4280   -3.4010    0.4340 H   0  0  0  0  0  0  0  0  0  0  0  0
    9.1220   -2.4100    1.9650 H   0  0  0  0  0  0  0  0  0  0  0  0
    9.3440   -1.0480    0.8420 H   0  0  0  0  0  0  0  0  0  0  0  0
   10.0980   -2.6000   -0.9430 H   0  0  0  0  0  0  0  0  0  0  0  0
    9.7820   -4.0010    0.1090 H   0  0  0  0  0  0  0  0  0  0  0  0
   12.1800   -1.0160   -0.2580 H   0  0  0  0  0  0  0  0  0  0  0  0
   15.4150   -1.9040    1.5630 H   0  0  0  0  0  0  0  0  0  0  0  0
   14.4910   -0.6150    2.3720 H   0  0  0  0  0  0  0  0  0  0  0  0
   15.6840    1.3270   -0.3880 H   0  0  0  0  0  0  0  0  0  0  0  0
   16.2260    0.7120    1.1920 H   0  0  0  0  0  0  0  0  0  0  0  0
   16.6360   -0.6300   -1.5270 H   0  0  0  0  0  0  0  0  0  0  0  0
   17.0620   -1.3710    0.0340 H   0  0  0  0  0  0  0  0  0  0  0  0
   19.3700   -1.4030   -0.5470 H   0  0  0  0  0  0  0  0  0  0  0  0
   18.9850   -0.6910   -2.1320 H   0  0  0  0  0  0  0  0  0  0  0  0
   20.7070    0.6490    0.0000 H   0  0  0  0  0  0  0  0  0  0  0  0
   20.3970    1.2500   -1.6470 H   0  0  0  0  0  0  0  0  0  0  0  0
   22.9080    0.8120   -0.5350 H   0  0  0  0  0  0  0  0  0  0  0  0
   23.6480   -0.5030   -1.4800 H   0  0  0  0  0  0  0  0  0  0  0  0
   22.2160    1.9060   -2.6980 H   0  0  0  0  0  0  0  0  0  0  0  0
   23.1010    0.6390   -3.5800 H   0  0  0  0  0  0  0  0  0  0  0  0
   25.1200    1.6680   -2.9610 H   0  0  0  0  0  0  0  0  0  0  0  0
   22.4190    3.6840   -1.6390 H   0  0  0  0  0  0  0  0  0  0  0  0
   22.7300    5.4700    0.0400 H   0  0  0  0  0  0  0  0  0  0  0  0
   24.9220    5.7640    1.1700 H   0  0  0  0  0  0  0  0  0  0  0  0
   29.5680    3.0900    1.1140 H   0  0  0  0  0  0  0  0  0  0  0  0
   29.6110    2.0500   -1.7850 H   0  0  0  0  0  0  0  0  0  0  0  0
   30.1660    3.6530   -1.2440 H   0  0  0  0  0  0  0  0  0  0  0  0
   31.8500    2.5470    0.2620 H   0  0  0  0  0  0  0  0  0  0  0  0
   32.1050    2.0720   -1.4340 H   0  0  0  0  0  0  0  0  0  0  0  0
   30.0400   -0.7780    0.8010 H   0  0  0  0  0  0  0  0  0  0  0  0
    0.7350   -0.5970    0.0860 H   0  0  0  0  0  0  0  0  0  0  0  0
    0.0180   -1.4530    1.4720 H   0  0  0  0  0  0  0  0  0  0  0  0
    0.3470    1.5760    1.1400 H   0  0  0  0  0  0  0  0  0  0  0  0
   -0.1400    0.8040    2.6680 H   0  0  0  0  0  0  0  0  0  0  0  0
   -1.5780    0.2350    0.0130 H   0  0  0  0  0  0  0  0  0  0  0  0
   -2.2400    2.3640    2.0840 H   0  0  0  0  0  0  0  0  0  0  0  0
   -3.3810    1.7690    0.8540 H   0  0  0  0  0  0  0  0  0  0  0  0
   -3.8470    4.0040    1.3290 H   0  0  0  0  0  0  0  0  0  0  0  0
   -4.8900    6.2390    1.3440 H   0  0  0  0  0  0  0  0  0  0  0  0
   -3.9850    8.0450   -0.0780 H   0  0  0  0  0  0  0  0  0  0  0  0
   -2.0260    7.6110   -1.5220 H   0  0  0  0  0  0  0  0  0  0  0  0
   -0.9730    5.3830   -1.5440 H   0  0  0  0  0  0  0  0  0  0  0  0
   -1.8070   -0.7370    2.8120 H   0  0  0  0  0  0  0  0  0  0  0  0
   -4.4370    0.6480    2.8520 H   0  0  0  0  0  0  0  0  0  0  0  0
   -6.7340    0.0750    2.1860 H   0  0  0  0  0  0  0  0  0  0  0  0
   -7.9940   -3.0160    2.4500 H   0  0  0  0  0  0  0  0  0  0  0  0
  -10.6840   -1.6830    1.8460 H   0  0  0  0  0  0  0  0  0  0  0  0
  -12.9440   -1.0270    1.1270 H   0  0  0  0  0  0  0  0  0  0  0  0
  -14.3300   -1.0630   -2.2840 H   0  0  0  0  0  0  0  0  0  0  0  0
  -13.9790   -2.7690   -2.6490 H   0  0  0  0  0  0  0  0  0  0  0  0
  -16.3780   -3.3560   -2.2210 H   0  0  0  0  0  0  0  0  0  0  0  0
  -16.2590   -2.1190   -3.4960 H   0  0  0  0  0  0  0  0  0  0  0  0
  -16.6790   -0.4390   -1.7830 H   0  0  0  0  0  0  0  0  0  0  0  0
  -18.4680   -1.7410   -3.0480 H   0  0  0  0  0  0  0  0  0  0  0  0
  -18.7640   -2.4710   -1.4520 H   0  0  0  0  0  0  0  0  0  0  0  0
  -21.0460   -2.5220   -0.9420 H   0  0  0  0  0  0  0  0  0  0  0  0
  -21.4150   -4.4410    0.5610 H   0  0  0  0  0  0  0  0  0  0  0  0
  -19.4300   -2.3400    3.7280 H   0  0  0  0  0  0  0  0  0  0  0  0
  -19.0610   -0.4230    2.2260 H   0  0  0  0  0  0  0  0  0  0  0  0
  -21.0730    1.4310   -0.7210 H   0  0  0  0  0  0  0  0  0  0  0  0
  -20.7410    1.1020    0.9970 H   0  0  0  0  0  0  0  0  0  0  0  0
  -18.3470    1.7450    0.6550 H   0  0  0  0  0  0  0  0  0  0  0  0
  -19.4320    3.0880    0.2220 H   0  0  0  0  0  0  0  0  0  0  0  0
  -18.7010    4.2770   -1.5850 H   0  0  0  0  0  0  0  0  0  0  0  0
  -20.0250    3.3680   -2.3520 H   0  0  0  0  0  0  0  0  0  0  0  0
  -18.4450    3.4930   -3.1620 H   0  0  0  0  0  0  0  0  0  0  0  0
  -16.7010    3.0810   -0.7060 H   0  0  0  0  0  0  0  0  0  0  0  0
  -16.4980    2.3590   -2.3200 H   0  0  0  0  0  0  0  0  0  0  0  0
  -16.5690    1.3150   -0.8800 H   0  0  0  0  0  0  0  0  0  0  0  0
  -18.0530    0.7380   -3.1170 H   0  0  0  0  0  0  0  0  0  0  0  0
  -19.7830    1.1060   -2.9110 H   0  0  0  0  0  0  0  0  0  0  0  0
  -17.4460   -1.1420    0.4420 H   0  0  0  0  0  0  0  0  0  0  0  0
  -17.0390   -2.8120   -0.0230 H   0  0  0  0  0  0  0  0  0  0  0  0
  -15.1690   -1.7910    1.2940 H   0  0  0  0  0  0  0  0  0  0  0  0
  -15.0520   -0.4690    0.1080 H   0  0  0  0  0  0  0  0  0  0  0  0
  -13.1300   -4.4860   -1.4150 H   0  0  0  0  0  0  0  0  0  0  0  0
  -10.8640   -5.1290   -0.7020 H   0  0  0  0  0  0  0  0  0  0  0  0
   -5.2290   -2.9930   -0.3850 H   0  0  0  0  0  0  0  0  0  0  0  0
  1  2  1  0  0  0  0
  1104  1  0  0  0  0
  1105  1  0  0  0  0
  1106  1  0  0  0  0
  2  3  1  0  0  0  0
  2 45  1  0  0  0  0
  2107  1  0  0  0  0
  3  4  1  0  0  0  0
  3108  1  0  0  0  0
  3109  1  0  0  0  0
  4  5  1  0  0  0  0
  4110  1  0  0  0  0
  4111  1  0  0  0  0
  5  6  1  0  0  0  0
  5112  1  0  0  0  0
  5113  1  0  0  0  0
  6  7  1  0  0  0  0
  6114  1  0  0  0  0
  6115  1  0  0  0  0
  7  8  1  0  0  0  0
  7116  1  0  0  0  0
  7117  1  0  0  0  0
  8  9  1  0  0  0  0
  8118  1  0  0  0  0
  8119  1  0  0  0  0
  9 10  1  0  0  0  0
  9120  1  0  0  0  0
  9121  1  0  0  0  0
 10 11  1  0  0  0  0
 10 44  1  0  0  0  0
 11 12  2  0  0  0  0
 11122  1  0  0  0  0
 12 13  1  0  0  0  0
 12 43  1  0  0  0  0
 13 14  1  0  0  0  0
 13123  1  0  0  0  0
 13124  1  0  0  0  0
 14 15  1  0  0  0  0
 15 16  1  0  0  0  0
 15125  1  0  0  0  0
 15126  1  0  0  0  0
 16 17  1  0  0  0  0
 16127  1  0  0  0  0
 16128  1  0  0  0  0
 17 18  1  0  0  0  0
 18 19  1  0  0  0  0
 18129  1  0  0  0  0
 18130  1  0  0  0  0
 19 20  1  0  0  0  0
 19131  1  0  0  0  0
 19132  1  0  0  0  0
 20 21  1  0  0  0  0
 21 22  1  0  0  0  0
 21133  1  0  0  0  0
 21134  1  0  0  0  0
 22 23  1  0  0  0  0
 22135  1  0  0  0  0
 22136  1  0  0  0  0
 23 24  1  0  0  0  0
 23137  1  0  0  0  0
 24 25  1  0  0  0  0
 24 29  2  0  0  0  0
 25 26  2  0  0  0  0
 25138  1  0  0  0  0
 26 27  1  0  0  0  0
 26139  1  0  0  0  0
 27 28  2  0  0  0  0
 27140  1  0  0  0  0
 28 29  1  0  0  0  0
 28 41  1  0  0  0  0
 29 30  1  0  0  0  0
 30 31  2  0  0  0  0
 30 32  1  0  0  0  0
 32 33  1  0  0  0  0
 32 41  1  0  0  0  0
 33 34  1  0  0  0  0
 33 39  1  0  0  0  0
 33141  1  0  0  0  0
 34 35  1  0  0  0  0
 34142  1  0  0  0  0
 34143  1  0  0  0  0
 35 36  1  0  0  0  0
 35144  1  0  0  0  0
 35145  1  0  0  0  0
 36 37  2  0  0  0  0
 36 38  1  0  0  0  0
 38 39  1  0  0  0  0
 38146  1  0  0  0  0
 39 40  2  0  0  0  0
 41 42  2  0  0  0  0
 43 44  2  0  0  0  0
 45 46  1  0  0  0  0
 45147  1  0  0  0  0
 45148  1  0  0  0  0
 46 47  1  0  0  0  0
 46149  1  0  0  0  0
 46150  1  0  0  0  0
 47 48  1  0  0  0  0
 47 56  1  0  0  0  0
 47151  1  0  0  0  0
 48 49  1  0  0  0  0
 48152  1  0  0  0  0
 48153  1  0  0  0  0
 49 50  1  0  0  0  0
 50 51  1  0  0  0  0
 50 55  2  0  0  0  0
 51 52  2  0  0  0  0
 51154  1  0  0  0  0
 52 53  1  0  0  0  0
 52155  1  0  0  0  0
 53 54  2  0  0  0  0
 53156  1  0  0  0  0
 54 55  1  0  0  0  0
 54157  1  0  0  0  0
 55158  1  0  0  0  0
 56 57  1  0  0  0  0
 56159  1  0  0  0  0
 57 58  1  0  0  0  0
 57 96  2  0  0  0  0
 58 59  2  0  0  0  0
 58160  1  0  0  0  0
 59 60  1  0  0  0  0
 59161  1  0  0  0  0
 60 61  1  0  0  0  0
 60 95  2  0  0  0  0
 61 62  2  0  0  0  0
 61 63  2  0  0  0  0
 61 64  1  0  0  0  0
 64 65  1  0  0  0  0
 64162  1  0  0  0  0
 65 66  2  0  0  0  0
 65 67  1  0  0  0  0
 67 68  1  0  0  0  0
 67 94  2  0  0  0  0
 68 69  2  0  0  0  0
 68163  1  0  0  0  0
 69 70  1  0  0  0  0
 69164  1  0  0  0  0
 70 71  1  0  0  0  0
 70 93  2  0  0  0  0
 71 72  1  0  0  0  0
 71 92  1  0  0  0  0
 72 73  1  0  0  0  0
 72165  1  0  0  0  0
 72166  1  0  0  0  0
 73 74  1  0  0  0  0
 73167  1  0  0  0  0
 73168  1  0  0  0  0
 74 75  1  0  0  0  0
 74 91  1  0  0  0  0
 74169  1  0  0  0  0
 75 76  1  0  0  0  0
 75170  1  0  0  0  0
 75171  1  0  0  0  0
 76 77  2  0  0  0  0
 76 90  1  0  0  0  0
 77 78  1  0  0  0  0
 77 85  1  0  0  0  0
 78 79  1  0  0  0  0
 78 84  2  0  0  0  0
 79 80  2  0  0  0  0
 79172  1  0  0  0  0
 80 81  1  0  0  0  0
 80173  1  0  0  0  0
 81 82  1  0  0  0  0
 81 83  2  0  0  0  0
 83 84  1  0  0  0  0
 83174  1  0  0  0  0
 84175  1  0  0  0  0
 85 86  1  0  0  0  0
 85176  1  0  0  0  0
 85177  1  0  0  0  0
 86 87  1  0  0  0  0
 86178  1  0  0  0  0
 86179  1  0  0  0  0
 87 88  1  0  0  0  0
 87 89  1  0  0  0  0
 87 90  1  0  0  0  0
 88180  1  0  0  0  0
 88181  1  0  0  0  0
 88182  1  0  0  0  0
 89183  1  0  0  0  0
 89184  1  0  0  0  0
 89185  1  0  0  0  0
 90186  1  0  0  0  0
 90187  1  0  0  0  0
 91 92  1  0  0  0  0
 91188  1  0  0  0  0
 91189  1  0  0  0  0
 92190  1  0  0  0  0
 92191  1  0  0  0  0
 93 94  1  0  0  0  0
 93192  1  0  0  0  0
 94193  1  0  0  0  0
 95 96  1  0  0  0  0
 95194  1  0  0  0  0
 96 97  1  0  0  0  0
 97 98  2  0  0  0  0
 97 99  2  0  0  0  0
 97100  1  0  0  0  0
100101  1  0  0  0  0
100102  1  0  0  0  0
100103  1  0  0  0  0
M  CHG  1   2   1
M  CHG  1  74   1
M  END
>  <Compound ID>
663

>  <Uniprot>
Q07817

>  <Target>
BCL-xL

>  <E3 ligase>
CRBN

>  <IC50 (nM, Cellular activities)>
35

>  <Assay (Cellular activities, IC50)>
Inhibit viability of MOLT-4 cells

>  <Article DOI>
10.1016/j.ejmech.2020.112186

>  <Molecular Weight>
1501.228

>  <Exact Mass>
1499.5494

>  <XLogP3>
11.14

>  <Heavy Atom Count>
103

>  <Ring Count>
10

>  <Hydrogen Bond Acceptor Count>
21

>  <Hydrogen Bond Donor Count>
4

>  <Rotatable Bond Count>
37

>  <Topological Polar Surface Area>
273.10999

>  <Molecular Formula>
C73H89ClF3N11O12S3

>  <InChI>
InChI=1S/C73H89ClF3N11O12S3/c1-72(2)31-29-60(51-17-21-54(74)22-18-51)53(46-72)47-85-36-38-86(39-37-85)57-23-19-52(20-24-57)68(90)82-103(96,97)59-25-26-62(65(45-59)102(94,95)73(75,76)77)79-55(50-101-58-13-8-7-9-14-58)30-35-84(3)33-10-5-4-6-11-34-87-48-56(81-83-87)49-100-44-43-99-42-41-98-40-32-78-63-16-12-15-61-67(63)71(93)88(70(61)92)64-27-28-66(89)80-69(64)91/h7-9,12-26,45,48,55,64,78-79H,4-6,10-11,27-44,46-47,49-50H2,1-3H3,(H,82,90)(H,80,89,91)/t55-,64?/m1/s1

>  <InChI Key>
ZIADKWWMMNTWBR-VJBWGSLXSA-N

$$$$
664
  MOE2018           3D

152160  0  0  1  0  0  0  0  0999 V2000
    0.2030   -4.5630   -2.1780 C   0  0  0  0  0  0  0  0  0  0  0  0
    0.0120   -5.8840   -1.5320 N   0  3  1  0  0  0  0  0  0  0  0  0
   -0.9600   -6.6670   -2.3240 C   0  0  0  0  0  0  0  0  0  0  0  0
   -2.1680   -6.8250   -1.3950 C   0  0  0  0  0  0  0  0  0  0  0  0
   -3.1320   -7.7820   -2.1000 C   0  0  0  0  0  0  0  0  0  0  0  0
   -4.1930   -7.9660   -1.1220 N   0  0  0  0  0  0  0  0  0  0  0  0
   -5.0150   -9.0920   -1.0700 C   0  0  0  0  0  0  0  0  0  0  0  0
   -4.5830  -10.3690   -1.4650 C   0  0  0  0  0  0  0  0  0  0  0  0
   -5.4460  -11.4640   -1.3590 C   0  0  0  0  0  0  0  0  0  0  0  0
   -6.7420  -11.3070   -0.8570 C   0  0  0  0  0  0  0  0  0  0  0  0
   -7.1580  -10.0350   -0.4660 C   0  0  0  0  0  0  0  0  0  0  0  0
   -6.3160   -8.9460   -0.5740 C   0  0  0  0  0  0  0  0  0  0  0  0
   -7.0300   -7.7860   -0.1210 C   0  0  0  0  0  0  0  0  0  0  0  0
   -6.6760   -6.6110   -0.1030 O   0  0  0  0  0  0  0  0  0  0  0  0
   -8.2940   -8.1940    0.2840 N   0  0  0  0  0  0  0  0  0  0  0  0
   -9.3260   -7.3770    0.9370 C   0  0  2  0  0  0  0  0  0  0  0  0
   -9.8590   -6.3610   -0.1060 C   0  0  0  0  0  0  0  0  0  0  0  0
  -10.8720   -5.4510    0.6290 C   0  0  0  0  0  0  0  0  0  0  0  0
  -10.1340   -4.7300    1.7410 C   0  0  0  0  0  0  0  0  0  0  0  0
  -10.3620   -3.5910    2.0590 O   0  0  0  0  0  0  0  0  0  0  0  0
   -9.1750   -5.3790    2.4510 N   0  0  0  0  0  0  0  0  0  0  0  0
   -8.7330   -6.6290    2.1440 C   0  0  0  0  0  0  0  0  0  0  0  0
   -7.9040   -7.0920    2.8950 O   0  0  0  0  0  0  0  0  0  0  0  0
   -8.4070   -9.5570    0.0800 C   0  0  0  0  0  0  0  0  0  0  0  0
   -9.4330  -10.1690    0.3330 O   0  0  0  0  0  0  0  0  0  0  0  0
    1.3190   -6.5740   -1.5080 C   0  0  0  0  0  0  0  0  0  0  0  0
    1.1640   -7.7430   -0.5170 C   0  0  0  0  0  0  0  0  0  0  0  0
    2.5790   -8.0970   -0.0300 C   0  0  2  0  0  0  0  0  0  0  0  0
    2.6170   -9.4050    0.7720 C   0  0  0  0  0  0  0  0  0  0  0  0
    2.3590  -10.7310   -0.4610 S   0  0  0  0  0  0  0  0  0  0  0  0
    2.4800  -12.2560    0.3920 C   0  0  0  0  0  0  0  0  0  0  0  0
    2.3180  -13.4370   -0.3400 C   0  0  0  0  0  0  0  0  0  0  0  0
    2.4040  -14.6730    0.2890 C   0  0  0  0  0  0  0  0  0  0  0  0
    2.6550  -14.7470    1.6560 C   0  0  0  0  0  0  0  0  0  0  0  0
    2.8190  -13.5770    2.3930 C   0  0  0  0  0  0  0  0  0  0  0  0
    2.7330  -12.3370    1.7700 C   0  0  0  0  0  0  0  0  0  0  0  0
    2.9580   -7.0200    0.8910 N   0  0  0  0  0  0  0  0  0  0  0  0
    4.0490   -6.2050    0.5680 C   0  0  0  0  0  0  0  0  0  0  0  0
    5.2470   -6.8270    0.2080 C   0  0  0  0  0  0  0  0  0  0  0  0
    6.3480   -6.0650   -0.1470 C   0  0  0  0  0  0  0  0  0  0  0  0
    6.2830   -4.6710   -0.1440 C   0  0  0  0  0  0  0  0  0  0  0  0
    7.7130   -3.6840   -0.6560 S   0  0  0  0  0  0  0  0  0  0  0  0
    8.5130   -4.4500   -1.5380 O   0  0  0  0  0  0  0  0  0  0  0  0
    7.2600   -2.4390   -1.1480 O   0  0  0  0  0  0  0  0  0  0  0  0
    8.5730   -3.3920    0.7160 N   0  0  0  0  0  0  0  0  0  0  0  0
    9.3430   -4.4350    1.0480 C   0  0  0  0  0  0  0  0  0  0  0  0
    8.7540   -5.2420    1.7470 O   0  0  0  0  0  0  0  0  0  0  0  0
   10.7350   -4.5610    0.6030 C   0  0  0  0  0  0  0  0  0  0  0  0
   11.5170   -5.6390    1.0520 C   0  0  0  0  0  0  0  0  0  0  0  0
   12.8380   -5.7830    0.6530 C   0  0  0  0  0  0  0  0  0  0  0  0
   13.4080   -4.8430   -0.2160 C   0  0  0  0  0  0  0  0  0  0  0  0
   14.7350   -4.9530   -0.6500 N   0  0  0  0  0  0  0  0  0  0  0  0
   15.7020   -5.6770    0.2120 C   0  0  0  0  0  0  0  0  0  0  0  0
   17.1180   -5.2300   -0.2290 C   0  0  0  0  0  0  0  0  0  0  0  0
   17.3040   -5.5940   -1.6740 N   0  3  0  0  0  0  0  0  0  0  0  0
   18.6670   -5.2290   -2.0660 C   0  0  0  0  0  0  0  0  0  0  0  0
   19.5000   -6.3730   -1.5230 C   0  0  0  0  0  0  0  0  0  0  0  0
   20.2710   -6.2370   -0.4130 C   0  0  0  0  0  0  0  0  0  0  0  0
   20.3760   -4.9840    0.3270 C   0  0  0  0  0  0  0  0  0  0  0  0
   20.9300   -3.8460   -0.2740 C   0  0  0  0  0  0  0  0  0  0  0  0
   21.0040   -2.6430    0.4180 C   0  0  0  0  0  0  0  0  0  0  0  0
   20.5340   -2.5650    1.7300 C   0  0  0  0  0  0  0  0  0  0  0  0
   20.6100   -1.0630    2.5900 Cl  0  0  0  0  0  0  0  0  0  0  0  0
   20.0060   -3.6980    2.3500 C   0  0  0  0  0  0  0  0  0  0  0  0
   19.9340   -4.8990    1.6540 C   0  0  0  0  0  0  0  0  0  0  0  0
   21.0780   -7.3850    0.1880 C   0  0  0  0  0  0  0  0  0  0  0  0
   21.2340   -8.5350   -0.8280 C   0  0  0  0  0  0  0  0  0  0  0  0
   19.8740   -8.8560   -1.4790 C   0  0  0  0  0  0  0  0  0  0  0  0
   18.7720   -9.2350   -0.4660 C   0  0  0  0  0  0  0  0  0  0  0  0
   20.0750  -10.0780   -2.3910 C   0  0  0  0  0  0  0  0  0  0  0  0
   19.4420   -7.6560   -2.3510 C   0  0  0  0  0  0  0  0  0  0  0  0
   16.3420   -4.7810   -2.4840 C   0  0  0  0  0  0  0  0  0  0  0  0
   14.8940   -5.1950   -2.1070 C   0  0  0  0  0  0  0  0  0  0  0  0
   12.6460   -3.7620   -0.6710 C   0  0  0  0  0  0  0  0  0  0  0  0
   11.3270   -3.6230   -0.2650 C   0  0  0  0  0  0  0  0  0  0  0  0
    5.0790   -4.0570    0.2220 C   0  0  0  0  0  0  0  0  0  0  0  0
    3.9570   -4.8010    0.6050 C   0  0  0  0  0  0  0  0  0  0  0  0
    2.4370   -3.9210    1.0550 S   0  0  0  0  0  0  0  0  0  0  0  0
    2.2990   -2.8240    0.1590 O   0  0  0  0  0  0  0  0  0  0  0  0
    1.3330   -4.8340    1.0370 O   0  0  0  0  0  0  0  0  0  0  0  0
    2.7850   -3.3210    2.8230 C   0  0  0  0  0  0  0  0  0  0  0  0
    2.9720   -4.3250    3.7070 F   0  0  0  0  0  0  0  0  0  0  0  0
    3.9050   -2.5670    2.9290 F   0  0  0  0  0  0  0  0  0  0  0  0
    1.8020   -2.5670    3.3600 F   0  0  0  0  0  0  0  0  0  0  0  0
   -0.7490   -4.0320   -2.2080 H   0  0  0  0  0  0  0  0  0  0  0  0
    0.5720   -4.7050   -3.1940 H   0  0  0  0  0  0  0  0  0  0  0  0
    0.9260   -3.9800   -1.6070 H   0  0  0  0  0  0  0  0  0  0  0  0
   -0.3380   -5.7800   -0.5900 H   0  0  0  0  0  0  0  0  0  0  0  0
   -1.2390   -6.1320   -3.2320 H   0  0  0  0  0  0  0  0  0  0  0  0
   -0.5470   -7.6400   -2.5890 H   0  0  0  0  0  0  0  0  0  0  0  0
   -1.8550   -7.2420   -0.4380 H   0  0  0  0  0  0  0  0  0  0  0  0
   -2.6470   -5.8600   -1.2320 H   0  0  0  0  0  0  0  0  0  0  0  0
   -2.6440   -8.7290   -2.3300 H   0  0  0  0  0  0  0  0  0  0  0  0
   -3.5190   -7.3400   -3.0180 H   0  0  0  0  0  0  0  0  0  0  0  0
   -4.3430   -7.2360   -0.4410 H   0  0  0  0  0  0  0  0  0  0  0  0
   -3.5840  -10.5050   -1.8510 H   0  0  0  0  0  0  0  0  0  0  0  0
   -5.1080  -12.4420   -1.6680 H   0  0  0  0  0  0  0  0  0  0  0  0
   -7.4070  -12.1540   -0.7740 H   0  0  0  0  0  0  0  0  0  0  0  0
  -10.1340   -8.0130    1.2980 H   0  0  0  0  0  0  0  0  0  0  0  0
   -9.0370   -5.7640   -0.5010 H   0  0  0  0  0  0  0  0  0  0  0  0
  -10.3520   -6.8870   -0.9230 H   0  0  0  0  0  0  0  0  0  0  0  0
  -11.6750   -6.0560    1.0500 H   0  0  0  0  0  0  0  0  0  0  0  0
  -11.2910   -4.7250   -0.0680 H   0  0  0  0  0  0  0  0  0  0  0  0
   -8.7690   -4.9100    3.2480 H   0  0  0  0  0  0  0  0  0  0  0  0
    1.5670   -6.9490   -2.5010 H   0  0  0  0  0  0  0  0  0  0  0  0
    2.1010   -5.8930   -1.1710 H   0  0  0  0  0  0  0  0  0  0  0  0
    0.7120   -8.6010   -1.0150 H   0  0  0  0  0  0  0  0  0  0  0  0
    0.5410   -7.4420    0.3250 H   0  0  0  0  0  0  0  0  0  0  0  0
    3.2370   -8.2130   -0.8910 H   0  0  0  0  0  0  0  0  0  0  0  0
    1.8240   -9.4180    1.5190 H   0  0  0  0  0  0  0  0  0  0  0  0
    3.5820   -9.5240    1.2650 H   0  0  0  0  0  0  0  0  0  0  0  0
    2.1250  -13.3880   -1.4010 H   0  0  0  0  0  0  0  0  0  0  0  0
    2.2760  -15.5790   -0.2850 H   0  0  0  0  0  0  0  0  0  0  0  0
    2.7220  -15.7080    2.1430 H   0  0  0  0  0  0  0  0  0  0  0  0
    3.0140  -13.6330    3.4540 H   0  0  0  0  0  0  0  0  0  0  0  0
    2.8610  -11.4340    2.3480 H   0  0  0  0  0  0  0  0  0  0  0  0
    2.4400   -6.8690    1.7450 H   0  0  0  0  0  0  0  0  0  0  0  0
    5.3150   -7.9050    0.2060 H   0  0  0  0  0  0  0  0  0  0  0  0
    7.2680   -6.5560   -0.4290 H   0  0  0  0  0  0  0  0  0  0  0  0
    8.5260   -2.5320    1.2430 H   0  0  0  0  0  0  0  0  0  0  0  0
   11.0820   -6.3680    1.7190 H   0  0  0  0  0  0  0  0  0  0  0  0
   13.4250   -6.6160    1.0110 H   0  0  0  0  0  0  0  0  0  0  0  0
   15.5370   -5.4210    1.2580 H   0  0  0  0  0  0  0  0  0  0  0  0
   15.5900   -6.7530    0.0790 H   0  0  0  0  0  0  0  0  0  0  0  0
   17.8690   -5.7360    0.3770 H   0  0  0  0  0  0  0  0  0  0  0  0
   17.2180   -4.1520   -0.1060 H   0  0  0  0  0  0  0  0  0  0  0  0
   17.1470   -6.5810   -1.8210 H   0  0  0  0  0  0  0  0  0  0  0  0
   18.7570   -5.1600   -3.1500 H   0  0  0  0  0  0  0  0  0  0  0  0
   18.9630   -4.2820   -1.6160 H   0  0  0  0  0  0  0  0  0  0  0  0
   21.3030   -3.9040   -1.2860 H   0  0  0  0  0  0  0  0  0  0  0  0
   21.4250   -1.7700   -0.0590 H   0  0  0  0  0  0  0  0  0  0  0  0
   19.6540   -3.6420    3.3690 H   0  0  0  0  0  0  0  0  0  0  0  0
   19.5330   -5.7760    2.1410 H   0  0  0  0  0  0  0  0  0  0  0  0
   22.0660   -7.0190    0.4680 H   0  0  0  0  0  0  0  0  0  0  0  0
   20.5640   -7.7580    1.0740 H   0  0  0  0  0  0  0  0  0  0  0  0
   21.6060   -9.4220   -0.3140 H   0  0  0  0  0  0  0  0  0  0  0  0
   21.9430   -8.2390   -1.6010 H   0  0  0  0  0  0  0  0  0  0  0  0
   19.1050  -10.0820    0.1330 H   0  0  0  0  0  0  0  0  0  0  0  0
   17.8620   -9.5050   -1.0030 H   0  0  0  0  0  0  0  0  0  0  0  0
   18.5710   -8.3850    0.1870 H   0  0  0  0  0  0  0  0  0  0  0  0
   20.3800  -10.9340   -1.7890 H   0  0  0  0  0  0  0  0  0  0  0  0
   20.8470   -9.8580   -3.1280 H   0  0  0  0  0  0  0  0  0  0  0  0
   19.1400  -10.3080   -2.9020 H   0  0  0  0  0  0  0  0  0  0  0  0
   18.4230   -7.8130   -2.7050 H   0  0  0  0  0  0  0  0  0  0  0  0
   20.1140   -7.5670   -3.2050 H   0  0  0  0  0  0  0  0  0  0  0  0
   16.4870   -3.7220   -2.2710 H   0  0  0  0  0  0  0  0  0  0  0  0
   16.5110   -4.9640   -3.5450 H   0  0  0  0  0  0  0  0  0  0  0  0
   14.7370   -6.2500   -2.3300 H   0  0  0  0  0  0  0  0  0  0  0  0
   14.1760   -4.5950   -2.6660 H   0  0  0  0  0  0  0  0  0  0  0  0
   13.0850   -3.0350   -1.3390 H   0  0  0  0  0  0  0  0  0  0  0  0
   10.7460   -2.7840   -0.6190 H   0  0  0  0  0  0  0  0  0  0  0  0
    5.0140   -2.9790    0.2080 H   0  0  0  0  0  0  0  0  0  0  0  0
  1  2  1  0  0  0  0
  1 85  1  0  0  0  0
  1 86  1  0  0  0  0
  1 87  1  0  0  0  0
  2  3  1  0  0  0  0
  2 26  1  0  0  0  0
  2 88  1  0  0  0  0
  3  4  1  0  0  0  0
  3 89  1  0  0  0  0
  3 90  1  0  0  0  0
  4  5  1  0  0  0  0
  4 91  1  0  0  0  0
  4 92  1  0  0  0  0
  5  6  1  0  0  0  0
  5 93  1  0  0  0  0
  5 94  1  0  0  0  0
  6  7  1  0  0  0  0
  6 95  1  0  0  0  0
  7  8  1  0  0  0  0
  7 12  2  0  0  0  0
  8  9  2  0  0  0  0
  8 96  1  0  0  0  0
  9 10  1  0  0  0  0
  9 97  1  0  0  0  0
 10 11  2  0  0  0  0
 10 98  1  0  0  0  0
 11 12  1  0  0  0  0
 11 24  1  0  0  0  0
 12 13  1  0  0  0  0
 13 14  2  0  0  0  0
 13 15  1  0  0  0  0
 15 16  1  0  0  0  0
 15 24  1  0  0  0  0
 16 17  1  0  0  0  0
 16 22  1  0  0  0  0
 16 99  1  0  0  0  0
 17 18  1  0  0  0  0
 17100  1  0  0  0  0
 17101  1  0  0  0  0
 18 19  1  0  0  0  0
 18102  1  0  0  0  0
 18103  1  0  0  0  0
 19 20  2  0  0  0  0
 19 21  1  0  0  0  0
 21 22  1  0  0  0  0
 21104  1  0  0  0  0
 22 23  2  0  0  0  0
 24 25  2  0  0  0  0
 26 27  1  0  0  0  0
 26105  1  0  0  0  0
 26106  1  0  0  0  0
 27 28  1  0  0  0  0
 27107  1  0  0  0  0
 27108  1  0  0  0  0
 28 29  1  0  0  0  0
 28 37  1  0  0  0  0
 28109  1  0  0  0  0
 29 30  1  0  0  0  0
 29110  1  0  0  0  0
 29111  1  0  0  0  0
 30 31  1  0  0  0  0
 31 32  1  0  0  0  0
 31 36  2  0  0  0  0
 32 33  2  0  0  0  0
 32112  1  0  0  0  0
 33 34  1  0  0  0  0
 33113  1  0  0  0  0
 34 35  2  0  0  0  0
 34114  1  0  0  0  0
 35 36  1  0  0  0  0
 35115  1  0  0  0  0
 36116  1  0  0  0  0
 37 38  1  0  0  0  0
 37117  1  0  0  0  0
 38 39  1  0  0  0  0
 38 77  2  0  0  0  0
 39 40  2  0  0  0  0
 39118  1  0  0  0  0
 40 41  1  0  0  0  0
 40119  1  0  0  0  0
 41 42  1  0  0  0  0
 41 76  2  0  0  0  0
 42 43  2  0  0  0  0
 42 44  2  0  0  0  0
 42 45  1  0  0  0  0
 45 46  1  0  0  0  0
 45120  1  0  0  0  0
 46 47  2  0  0  0  0
 46 48  1  0  0  0  0
 48 49  1  0  0  0  0
 48 75  2  0  0  0  0
 49 50  2  0  0  0  0
 49121  1  0  0  0  0
 50 51  1  0  0  0  0
 50122  1  0  0  0  0
 51 52  1  0  0  0  0
 51 74  2  0  0  0  0
 52 53  1  0  0  0  0
 52 73  1  0  0  0  0
 53 54  1  0  0  0  0
 53123  1  0  0  0  0
 53124  1  0  0  0  0
 54 55  1  0  0  0  0
 54125  1  0  0  0  0
 54126  1  0  0  0  0
 55 56  1  0  0  0  0
 55 72  1  0  0  0  0
 55127  1  0  0  0  0
 56 57  1  0  0  0  0
 56128  1  0  0  0  0
 56129  1  0  0  0  0
 57 58  2  0  0  0  0
 57 71  1  0  0  0  0
 58 59  1  0  0  0  0
 58 66  1  0  0  0  0
 59 60  1  0  0  0  0
 59 65  2  0  0  0  0
 60 61  2  0  0  0  0
 60130  1  0  0  0  0
 61 62  1  0  0  0  0
 61131  1  0  0  0  0
 62 63  1  0  0  0  0
 62 64  2  0  0  0  0
 64 65  1  0  0  0  0
 64132  1  0  0  0  0
 65133  1  0  0  0  0
 66 67  1  0  0  0  0
 66134  1  0  0  0  0
 66135  1  0  0  0  0
 67 68  1  0  0  0  0
 67136  1  0  0  0  0
 67137  1  0  0  0  0
 68 69  1  0  0  0  0
 68 70  1  0  0  0  0
 68 71  1  0  0  0  0
 69138  1  0  0  0  0
 69139  1  0  0  0  0
 69140  1  0  0  0  0
 70141  1  0  0  0  0
 70142  1  0  0  0  0
 70143  1  0  0  0  0
 71144  1  0  0  0  0
 71145  1  0  0  0  0
 72 73  1  0  0  0  0
 72146  1  0  0  0  0
 72147  1  0  0  0  0
 73148  1  0  0  0  0
 73149  1  0  0  0  0
 74 75  1  0  0  0  0
 74150  1  0  0  0  0
 75151  1  0  0  0  0
 76 77  1  0  0  0  0
 76152  1  0  0  0  0
 77 78  1  0  0  0  0
 78 79  2  0  0  0  0
 78 80  2  0  0  0  0
 78 81  1  0  0  0  0
 81 82  1  0  0  0  0
 81 83  1  0  0  0  0
 81 84  1  0  0  0  0
M  CHG  1   2   1
M  CHG  1  55   1
M  END
>  <Compound ID>
664

>  <Uniprot>
Q07817

>  <Target>
BCL-xL

>  <E3 ligase>
CRBN

>  <IC50 (nM, Cellular activities)>
32.5/129/70.2

>  <Assay (Cellular activities, IC50)>
Inhibit viability of MOLT-4/RS4;11/H146 cells

>  <Article DOI>
10.1016/j.ejmech.2020.112186

>  <Molecular Weight>
1231.8831

>  <Exact Mass>
1230.3756

>  <XLogP3>
10.74

>  <Heavy Atom Count>
84

>  <Ring Count>
9

>  <Hydrogen Bond Acceptor Count>
15

>  <Hydrogen Bond Donor Count>
4

>  <Rotatable Bond Count>
22

>  <Topological Polar Surface Area>
214.71001

>  <Molecular Formula>
C60H66ClF3N8O9S3

>  <InChI>
InChI=1S/C60H66ClF3N8O9S3/c1-59(2)27-25-47(39-13-17-42(61)18-14-39)41(36-59)37-70-31-33-71(34-32-70)44-19-15-40(16-20-44)55(74)68-84(80,81)46-21-22-49(52(35-46)83(78,79)60(62,63)64)66-43(38-82-45-9-5-4-6-10-45)26-30-69(3)29-8-28-65-50-12-7-11-48-54(50)58(77)72(57(48)76)51-23-24-53(73)67-56(51)75/h4-7,9-22,35,43,51,65-66H,8,23-34,36-38H2,1-3H3,(H,68,74)(H,67,73,75)/t43-,51?/m1/s1

>  <InChI Key>
HUFMCQSCXIKKGP-KYNVYPTLSA-N

>  <DC50 (nM)>
10.6

>  <Assay (DC50/Dmax)>
Degradation of BCL-xL in MOLT-4 cells after 16 h treatment

$$$$
665
  MOE2018           3D

155163  0  0  1  0  0  0  0  0999 V2000
   -0.7310   -2.6500   -0.2400 C   0  0  0  0  0  0  0  0  0  0  0  0
   -0.4240   -4.0920   -0.4620 N   0  3  2  0  0  0  0  0  0  0  0  0
   -1.3000   -4.9070    0.4020 C   0  0  0  0  0  0  0  0  0  0  0  0
   -2.6400   -5.0140   -0.3470 C   0  0  0  0  0  0  0  0  0  0  0  0
   -3.5450   -5.9120    0.5110 C   0  0  0  0  0  0  0  0  0  0  0  0
   -4.9400   -6.0410   -0.1070 C   0  0  0  0  0  0  0  0  0  0  0  0
   -5.6410   -6.9380    0.7960 N   0  0  0  0  0  0  0  0  0  0  0  0
   -6.8980   -7.3960    0.4200 C   0  0  0  0  0  0  0  0  0  0  0  0
   -7.8910   -6.5280   -0.0580 C   0  0  0  0  0  0  0  0  0  0  0  0
   -9.1400   -7.0340   -0.4280 C   0  0  0  0  0  0  0  0  0  0  0  0
   -9.4140   -8.4030   -0.3260 C   0  0  0  0  0  0  0  0  0  0  0  0
   -8.4170   -9.2520    0.1550 C   0  0  0  0  0  0  0  0  0  0  0  0
   -7.1830   -8.7600    0.5270 C   0  0  0  0  0  0  0  0  0  0  0  0
   -6.3720   -9.8620    0.9580 C   0  0  0  0  0  0  0  0  0  0  0  0
   -5.2160   -9.8650    1.3710 O   0  0  0  0  0  0  0  0  0  0  0  0
   -7.1280  -11.0190    0.8360 N   0  0  0  0  0  0  0  0  0  0  0  0
   -6.6580  -12.4020    0.9920 C   0  0  2  0  0  0  0  0  0  0  0  0
   -6.3220  -12.6310    2.4870 C   0  0  0  0  0  0  0  0  0  0  0  0
   -5.7420  -14.0610    2.6030 C   0  0  0  0  0  0  0  0  0  0  0  0
   -4.4820  -14.1280    1.7590 C   0  0  0  0  0  0  0  0  0  0  0  0
   -3.5060  -14.7580    2.0740 O   0  0  0  0  0  0  0  0  0  0  0  0
   -4.4250  -13.4710    0.5720 N   0  0  0  0  0  0  0  0  0  0  0  0
   -5.4050  -12.6360    0.1310 C   0  0  0  0  0  0  0  0  0  0  0  0
   -5.2250  -12.1480   -0.9640 O   0  0  0  0  0  0  0  0  0  0  0  0
   -8.3820  -10.6820    0.3570 C   0  0  0  0  0  0  0  0  0  0  0  0
   -9.2510  -11.5190    0.1690 O   0  0  0  0  0  0  0  0  0  0  0  0
    0.9660   -4.3220   -0.0220 C   0  0  0  0  0  0  0  0  0  0  0  0
    1.8390   -4.0690   -1.2640 C   0  0  0  0  0  0  0  0  0  0  0  0
    3.2810   -3.8610   -0.7540 C   0  0  2  0  0  0  0  0  0  0  0  0
    3.7180   -2.3810   -0.7800 C   0  0  0  0  0  0  0  0  0  0  0  0
    2.5720   -1.4750    0.3250 S   0  0  0  0  0  0  0  0  0  0  0  0
    3.1650    0.1710    0.4320 C   0  0  0  0  0  0  0  0  0  0  0  0
    4.2720    0.6260   -0.3010 C   0  0  0  0  0  0  0  0  0  0  0  0
    4.6960    1.9450   -0.1790 C   0  0  0  0  0  0  0  0  0  0  0  0
    4.0270    2.8230    0.6690 C   0  0  0  0  0  0  0  0  0  0  0  0
    2.9300    2.3770    1.4000 C   0  0  0  0  0  0  0  0  0  0  0  0
    2.5010    1.0610    1.2840 C   0  0  0  0  0  0  0  0  0  0  0  0
    4.1570   -4.6220   -1.6660 N   0  0  0  0  0  0  0  0  0  0  0  0
    5.3920   -4.9700   -1.1230 C   0  0  0  0  0  0  0  0  0  0  0  0
    6.4860   -4.1590   -1.4250 C   0  0  0  0  0  0  0  0  0  0  0  0
    7.7200   -4.4210   -0.8490 C   0  0  0  0  0  0  0  0  0  0  0  0
    7.8890   -5.5030    0.0190 C   0  0  0  0  0  0  0  0  0  0  0  0
    9.4920   -5.8050    0.8070 S   0  0  0  0  0  0  0  0  0  0  0  0
    9.2900   -6.4720    2.0360 O   0  0  0  0  0  0  0  0  0  0  0  0
   10.2140   -4.5890    0.8690 O   0  0  0  0  0  0  0  0  0  0  0  0
   10.2900   -6.8420   -0.1920 N   0  0  0  0  0  0  0  0  0  0  0  0
   10.8890   -6.1960   -1.1980 C   0  0  0  0  0  0  0  0  0  0  0  0
   10.1530   -6.0430   -2.1600 O   0  0  0  0  0  0  0  0  0  0  0  0
   12.2800   -5.7380   -1.1180 C   0  0  0  0  0  0  0  0  0  0  0  0
   12.8940   -5.1670   -2.2460 C   0  0  0  0  0  0  0  0  0  0  0  0
   14.2090   -4.7290   -2.1990 C   0  0  0  0  0  0  0  0  0  0  0  0
   14.9420   -4.8480   -1.0150 C   0  0  0  0  0  0  0  0  0  0  0  0
   16.2620   -4.3840   -1.0010 N   0  0  0  0  0  0  0  0  0  0  0  0
   16.8350   -3.9180    0.2870 C   0  0  0  0  0  0  0  0  0  0  0  0
   18.0320   -3.0000   -0.0660 C   0  0  0  0  0  0  0  0  0  0  0  0
   19.0220   -3.8030   -0.8520 N   0  3  0  0  0  0  0  0  0  0  0  0
   20.2050   -2.9940   -1.0930 C   0  0  0  0  0  0  0  0  0  0  0  0
   21.2870   -3.9790   -0.7120 C   0  0  0  0  0  0  0  0  0  0  0  0
   21.5280   -4.3560    0.5630 C   0  0  0  0  0  0  0  0  0  0  0  0
   20.7780   -3.8570    1.7080 C   0  0  0  0  0  0  0  0  0  0  0  0
   20.8480   -2.5070    2.0770 C   0  0  0  0  0  0  0  0  0  0  0  0
   20.0840   -2.0210    3.1300 C   0  0  0  0  0  0  0  0  0  0  0  0
   19.2440   -2.8830    3.8360 C   0  0  0  0  0  0  0  0  0  0  0  0
   18.2680   -2.2740    5.1300 Cl  0  0  0  0  0  0  0  0  0  0  0  0
   19.1860   -4.2360    3.4970 C   0  0  0  0  0  0  0  0  0  0  0  0
   19.9530   -4.7180    2.4430 C   0  0  0  0  0  0  0  0  0  0  0  0
   22.6240   -5.3720    0.8220 C   0  0  0  0  0  0  0  0  0  0  0  0
   22.2900   -6.5470   -0.1210 C   0  0  0  0  0  0  0  0  0  0  0  0
   22.3010   -6.0880   -1.6130 C   0  0  0  0  0  0  0  0  0  0  0  0
   23.6200   -6.5370   -2.2670 C   0  0  0  0  0  0  0  0  0  0  0  0
   21.1630   -6.8280   -2.3420 C   0  0  0  0  0  0  0  0  0  0  0  0
   22.1490   -4.5460   -1.8280 C   0  0  0  0  0  0  0  0  0  0  0  0
   18.4030   -4.1890   -2.1570 C   0  0  0  0  0  0  0  0  0  0  0  0
   17.2040   -5.1320   -1.8730 C   0  0  0  0  0  0  0  0  0  0  0  0
   14.3490   -5.4130    0.1210 C   0  0  0  0  0  0  0  0  0  0  0  0
   13.0350   -5.8560    0.0650 C   0  0  0  0  0  0  0  0  0  0  0  0
    6.7900   -6.3290    0.2830 C   0  0  0  0  0  0  0  0  0  0  0  0
    5.5390   -6.0960   -0.2990 C   0  0  0  0  0  0  0  0  0  0  0  0
    4.1840   -7.2680   -0.0450 S   0  0  0  0  0  0  0  0  0  0  0  0
    3.0460   -6.5790    0.4870 O   0  0  0  0  0  0  0  0  0  0  0  0
    4.6770   -8.3270    0.7700 O   0  0  0  0  0  0  0  0  0  0  0  0
    3.8130   -7.9170   -1.7970 C   0  0  0  0  0  0  0  0  0  0  0  0
    2.8570   -7.2200   -2.4700 F   0  0  0  0  0  0  0  0  0  0  0  0
    3.3640   -9.1940   -1.8280 F   0  0  0  0  0  0  0  0  0  0  0  0
    4.8870   -7.9150   -2.6240 F   0  0  0  0  0  0  0  0  0  0  0  0
   -1.7540   -2.4440   -0.5550 H   0  0  0  0  0  0  0  0  0  0  0  0
   -0.0410   -2.0380   -0.8210 H   0  0  0  0  0  0  0  0  0  0  0  0
   -0.6220   -2.4140    0.8190 H   0  0  0  0  0  0  0  0  0  0  0  0
   -0.5580   -4.3360   -1.4330 H   0  0  0  0  0  0  0  0  0  0  0  0
   -0.8690   -5.8970    0.5540 H   0  0  0  0  0  0  0  0  0  0  0  0
   -1.4420   -4.4200    1.3670 H   0  0  0  0  0  0  0  0  0  0  0  0
   -3.0880   -4.0270   -0.4620 H   0  0  0  0  0  0  0  0  0  0  0  0
   -2.4880   -5.4610   -1.3300 H   0  0  0  0  0  0  0  0  0  0  0  0
   -3.6360   -5.4780    1.5070 H   0  0  0  0  0  0  0  0  0  0  0  0
   -3.0960   -6.9020    0.5860 H   0  0  0  0  0  0  0  0  0  0  0  0
   -4.8820   -6.4660   -1.1090 H   0  0  0  0  0  0  0  0  0  0  0  0
   -5.4350   -5.0710   -0.1520 H   0  0  0  0  0  0  0  0  0  0  0  0
   -5.2260   -7.2210    1.6720 H   0  0  0  0  0  0  0  0  0  0  0  0
   -7.6900   -5.4700   -0.1400 H   0  0  0  0  0  0  0  0  0  0  0  0
   -9.9010   -6.3620   -0.7960 H   0  0  0  0  0  0  0  0  0  0  0  0
  -10.3790   -8.7940   -0.6140 H   0  0  0  0  0  0  0  0  0  0  0  0
   -7.4310  -13.0990    0.6670 H   0  0  0  0  0  0  0  0  0  0  0  0
   -5.5860  -11.9000    2.8220 H   0  0  0  0  0  0  0  0  0  0  0  0
   -7.2240  -12.5420    3.0920 H   0  0  0  0  0  0  0  0  0  0  0  0
   -6.4700  -14.7860    2.2390 H   0  0  0  0  0  0  0  0  0  0  0  0
   -5.5020  -14.2790    3.6440 H   0  0  0  0  0  0  0  0  0  0  0  0
   -3.6140  -13.6090   -0.0140 H   0  0  0  0  0  0  0  0  0  0  0  0
    1.2320   -3.6300    0.7770 H   0  0  0  0  0  0  0  0  0  0  0  0
    1.0900   -5.3470    0.3280 H   0  0  0  0  0  0  0  0  0  0  0  0
    1.4940   -3.1790   -1.7910 H   0  0  0  0  0  0  0  0  0  0  0  0
    1.7970   -4.9270   -1.9340 H   0  0  0  0  0  0  0  0  0  0  0  0
    3.3430   -4.1920    0.2830 H   0  0  0  0  0  0  0  0  0  0  0  0
    3.6520   -1.9870   -1.7940 H   0  0  0  0  0  0  0  0  0  0  0  0
    4.7420   -2.2850   -0.4190 H   0  0  0  0  0  0  0  0  0  0  0  0
    4.7960   -0.0500   -0.9610 H   0  0  0  0  0  0  0  0  0  0  0  0
    5.5490    2.2900   -0.7450 H   0  0  0  0  0  0  0  0  0  0  0  0
    4.3580    3.8470    0.7590 H   0  0  0  0  0  0  0  0  0  0  0  0
    2.4110    3.0560    2.0600 H   0  0  0  0  0  0  0  0  0  0  0  0
    1.6490    0.7220    1.8550 H   0  0  0  0  0  0  0  0  0  0  0  0
    3.8840   -4.8700   -2.6060 H   0  0  0  0  0  0  0  0  0  0  0  0
    6.3720   -3.3290   -2.1060 H   0  0  0  0  0  0  0  0  0  0  0  0
    8.5600   -3.7810   -1.0740 H   0  0  0  0  0  0  0  0  0  0  0  0
   10.3230   -7.8430   -0.0610 H   0  0  0  0  0  0  0  0  0  0  0  0
   12.3330   -5.0680   -3.1640 H   0  0  0  0  0  0  0  0  0  0  0  0
   14.6660   -4.2960   -3.0770 H   0  0  0  0  0  0  0  0  0  0  0  0
   16.0870   -3.3610    0.8510 H   0  0  0  0  0  0  0  0  0  0  0  0
   17.1750   -4.7690    0.8770 H   0  0  0  0  0  0  0  0  0  0  0  0
   18.4980   -2.6330    0.8490 H   0  0  0  0  0  0  0  0  0  0  0  0
   17.6860   -2.1550   -0.6620 H   0  0  0  0  0  0  0  0  0  0  0  0
   19.2820   -4.6340   -0.3400 H   0  0  0  0  0  0  0  0  0  0  0  0
   20.2820   -2.6940   -2.1380 H   0  0  0  0  0  0  0  0  0  0  0  0
   20.2240   -2.1080   -0.4580 H   0  0  0  0  0  0  0  0  0  0  0  0
   21.5020   -1.8380    1.5370 H   0  0  0  0  0  0  0  0  0  0  0  0
   20.1400   -0.9770    3.4020 H   0  0  0  0  0  0  0  0  0  0  0  0
   18.5470   -4.9060    4.0520 H   0  0  0  0  0  0  0  0  0  0  0  0
   19.9130   -5.7670    2.1880 H   0  0  0  0  0  0  0  0  0  0  0  0
   23.6020   -4.9530    0.5850 H   0  0  0  0  0  0  0  0  0  0  0  0
   22.6110   -5.6970    1.8620 H   0  0  0  0  0  0  0  0  0  0  0  0
   21.3010   -6.9320    0.1260 H   0  0  0  0  0  0  0  0  0  0  0  0
   23.0310   -7.3350    0.0150 H   0  0  0  0  0  0  0  0  0  0  0  0
   23.7470   -7.6110   -2.1290 H   0  0  0  0  0  0  0  0  0  0  0  0
   24.4540   -6.0100   -1.8030 H   0  0  0  0  0  0  0  0  0  0  0  0
   23.5940   -6.3080   -3.3320 H   0  0  0  0  0  0  0  0  0  0  0  0
   21.2720   -7.9020   -2.1900 H   0  0  0  0  0  0  0  0  0  0  0  0
   21.2090   -6.6050   -3.4080 H   0  0  0  0  0  0  0  0  0  0  0  0
   20.2030   -6.5000   -1.9440 H   0  0  0  0  0  0  0  0  0  0  0  0
   21.6740   -4.3550   -2.7910 H   0  0  0  0  0  0  0  0  0  0  0  0
   23.1320   -4.0750   -1.8080 H   0  0  0  0  0  0  0  0  0  0  0  0
   18.0540   -3.2970   -2.6770 H   0  0  0  0  0  0  0  0  0  0  0  0
   19.1380   -4.7050   -2.7750 H   0  0  0  0  0  0  0  0  0  0  0  0
   17.5480   -6.0330   -1.3660 H   0  0  0  0  0  0  0  0  0  0  0  0
   16.7130   -5.4050   -2.8070 H   0  0  0  0  0  0  0  0  0  0  0  0
   14.9130   -5.5040    1.0380 H   0  0  0  0  0  0  0  0  0  0  0  0
   12.5850   -6.2980    0.9420 H   0  0  0  0  0  0  0  0  0  0  0  0
    6.9110   -7.1670    0.9530 H   0  0  0  0  0  0  0  0  0  0  0  0
  1  2  1  0  0  0  0
  1 86  1  0  0  0  0
  1 87  1  0  0  0  0
  1 88  1  0  0  0  0
  2  3  1  0  0  0  0
  2 27  1  0  0  0  0
  2 89  1  0  0  0  0
  3  4  1  0  0  0  0
  3 90  1  0  0  0  0
  3 91  1  0  0  0  0
  4  5  1  0  0  0  0
  4 92  1  0  0  0  0
  4 93  1  0  0  0  0
  5  6  1  0  0  0  0
  5 94  1  0  0  0  0
  5 95  1  0  0  0  0
  6  7  1  0  0  0  0
  6 96  1  0  0  0  0
  6 97  1  0  0  0  0
  7  8  1  0  0  0  0
  7 98  1  0  0  0  0
  8  9  1  0  0  0  0
  8 13  2  0  0  0  0
  9 10  2  0  0  0  0
  9 99  1  0  0  0  0
 10 11  1  0  0  0  0
 10100  1  0  0  0  0
 11 12  2  0  0  0  0
 11101  1  0  0  0  0
 12 13  1  0  0  0  0
 12 25  1  0  0  0  0
 13 14  1  0  0  0  0
 14 15  2  0  0  0  0
 14 16  1  0  0  0  0
 16 17  1  0  0  0  0
 16 25  1  0  0  0  0
 17 18  1  0  0  0  0
 17 23  1  0  0  0  0
 17102  1  0  0  0  0
 18 19  1  0  0  0  0
 18103  1  0  0  0  0
 18104  1  0  0  0  0
 19 20  1  0  0  0  0
 19105  1  0  0  0  0
 19106  1  0  0  0  0
 20 21  2  0  0  0  0
 20 22  1  0  0  0  0
 22 23  1  0  0  0  0
 22107  1  0  0  0  0
 23 24  2  0  0  0  0
 25 26  2  0  0  0  0
 27 28  1  0  0  0  0
 27108  1  0  0  0  0
 27109  1  0  0  0  0
 28 29  1  0  0  0  0
 28110  1  0  0  0  0
 28111  1  0  0  0  0
 29 30  1  0  0  0  0
 29 38  1  0  0  0  0
 29112  1  0  0  0  0
 30 31  1  0  0  0  0
 30113  1  0  0  0  0
 30114  1  0  0  0  0
 31 32  1  0  0  0  0
 32 33  1  0  0  0  0
 32 37  2  0  0  0  0
 33 34  2  0  0  0  0
 33115  1  0  0  0  0
 34 35  1  0  0  0  0
 34116  1  0  0  0  0
 35 36  2  0  0  0  0
 35117  1  0  0  0  0
 36 37  1  0  0  0  0
 36118  1  0  0  0  0
 37119  1  0  0  0  0
 38 39  1  0  0  0  0
 38120  1  0  0  0  0
 39 40  1  0  0  0  0
 39 78  2  0  0  0  0
 40 41  2  0  0  0  0
 40121  1  0  0  0  0
 41 42  1  0  0  0  0
 41122  1  0  0  0  0
 42 43  1  0  0  0  0
 42 77  2  0  0  0  0
 43 44  2  0  0  0  0
 43 45  2  0  0  0  0
 43 46  1  0  0  0  0
 46 47  1  0  0  0  0
 46123  1  0  0  0  0
 47 48  2  0  0  0  0
 47 49  1  0  0  0  0
 49 50  1  0  0  0  0
 49 76  2  0  0  0  0
 50 51  2  0  0  0  0
 50124  1  0  0  0  0
 51 52  1  0  0  0  0
 51125  1  0  0  0  0
 52 53  1  0  0  0  0
 52 75  2  0  0  0  0
 53 54  1  0  0  0  0
 53 74  1  0  0  0  0
 54 55  1  0  0  0  0
 54126  1  0  0  0  0
 54127  1  0  0  0  0
 55 56  1  0  0  0  0
 55128  1  0  0  0  0
 55129  1  0  0  0  0
 56 57  1  0  0  0  0
 56 73  1  0  0  0  0
 56130  1  0  0  0  0
 57 58  1  0  0  0  0
 57131  1  0  0  0  0
 57132  1  0  0  0  0
 58 59  2  0  0  0  0
 58 72  1  0  0  0  0
 59 60  1  0  0  0  0
 59 67  1  0  0  0  0
 60 61  1  0  0  0  0
 60 66  2  0  0  0  0
 61 62  2  0  0  0  0
 61133  1  0  0  0  0
 62 63  1  0  0  0  0
 62134  1  0  0  0  0
 63 64  1  0  0  0  0
 63 65  2  0  0  0  0
 65 66  1  0  0  0  0
 65135  1  0  0  0  0
 66136  1  0  0  0  0
 67 68  1  0  0  0  0
 67137  1  0  0  0  0
 67138  1  0  0  0  0
 68 69  1  0  0  0  0
 68139  1  0  0  0  0
 68140  1  0  0  0  0
 69 70  1  0  0  0  0
 69 71  1  0  0  0  0
 69 72  1  0  0  0  0
 70141  1  0  0  0  0
 70142  1  0  0  0  0
 70143  1  0  0  0  0
 71144  1  0  0  0  0
 71145  1  0  0  0  0
 71146  1  0  0  0  0
 72147  1  0  0  0  0
 72148  1  0  0  0  0
 73 74  1  0  0  0  0
 73149  1  0  0  0  0
 73150  1  0  0  0  0
 74151  1  0  0  0  0
 74152  1  0  0  0  0
 75 76  1  0  0  0  0
 75153  1  0  0  0  0
 76154  1  0  0  0  0
 77 78  1  0  0  0  0
 77155  1  0  0  0  0
 78 79  1  0  0  0  0
 79 80  2  0  0  0  0
 79 81  2  0  0  0  0
 79 82  1  0  0  0  0
 82 83  1  0  0  0  0
 82 84  1  0  0  0  0
 82 85  1  0  0  0  0
M  CHG  1   2   1
M  CHG  1  56   1
M  END
>  <Compound ID>
665

>  <Uniprot>
Q07817

>  <Target>
BCL-xL

>  <E3 ligase>
CRBN

>  <IC50 (nM, Cellular activities)>
38.7

>  <Assay (Cellular activities, IC50)>
Inhibit viability of MOLT-4 cells

>  <Article DOI>
10.1016/j.ejmech.2020.112186

>  <Molecular Weight>
1245.91

>  <Exact Mass>
1244.3912

>  <XLogP3>
11.1

>  <Heavy Atom Count>
85

>  <Ring Count>
9

>  <Hydrogen Bond Acceptor Count>
15

>  <Hydrogen Bond Donor Count>
4

>  <Rotatable Bond Count>
23

>  <Topological Polar Surface Area>
214.71001

>  <Molecular Formula>
C61H68ClF3N8O9S3

>  <InChI>
InChI=1S/C61H68ClF3N8O9S3/c1-60(2)28-26-48(40-14-18-43(62)19-15-40)42(37-60)38-71-32-34-72(35-33-71)45-20-16-41(17-21-45)56(75)69-85(81,82)47-22-23-50(53(36-47)84(79,80)61(63,64)65)67-44(39-83-46-10-5-4-6-11-46)27-31-70(3)30-8-7-29-66-51-13-9-12-49-55(51)59(78)73(58(49)77)52-24-25-54(74)68-57(52)76/h4-6,9-23,36,44,52,66-67H,7-8,24-35,37-39H2,1-3H3,(H,69,75)(H,68,74,76)/t44-,52?/m1/s1

>  <InChI Key>
SWYIOEPEGVTQNK-IAUHEVLUSA-N

$$$$
666
  MOE2018           3D

158166  0  0  1  0  0  0  0  0999 V2000
   -4.2440    0.9680    2.4730 C   0  0  0  0  0  0  0  0  0  0  0  0
   -5.6170    0.9440    1.9000 N   0  3  2  0  0  0  0  0  0  0  0  0
   -5.7950   -0.3090    1.1350 C   0  0  0  0  0  0  0  0  0  0  0  0
   -7.3040   -0.5940    1.1840 C   0  0  0  0  0  0  0  0  0  0  0  0
   -7.5410   -1.8890    0.3890 C   0  0  0  0  0  0  0  0  0  0  0  0
   -9.0310   -2.2600    0.4330 C   0  0  0  0  0  0  0  0  0  0  0  0
   -9.3230   -3.5240   -0.3800 C   0  0  0  0  0  0  0  0  0  0  0  0
  -10.7450   -3.7570   -0.1790 N   0  0  0  0  0  0  0  0  0  0  0  0
  -11.4460   -4.7570   -0.8470 C   0  0  0  0  0  0  0  0  0  0  0  0
  -10.8100   -5.8990   -1.3600 C   0  0  0  0  0  0  0  0  0  0  0  0
  -11.5600   -6.8850   -2.0090 C   0  0  0  0  0  0  0  0  0  0  0  0
  -12.9450   -6.7490   -2.1520 C   0  0  0  0  0  0  0  0  0  0  0  0
  -13.5620   -5.6100   -1.6370 C   0  0  0  0  0  0  0  0  0  0  0  0
  -12.8310   -4.6270   -0.9990 C   0  0  0  0  0  0  0  0  0  0  0  0
  -13.7360   -3.5840   -0.6060 C   0  0  0  0  0  0  0  0  0  0  0  0
  -13.5030   -2.5070   -0.0630 O   0  0  0  0  0  0  0  0  0  0  0  0
  -15.0150   -3.9600   -0.9940 N   0  0  0  0  0  0  0  0  0  0  0  0
  -16.2760   -3.2740   -0.6810 C   0  0  2  0  0  0  0  0  0  0  0  0
  -16.2950   -1.9290   -1.4530 C   0  0  0  0  0  0  0  0  0  0  0  0
  -17.5760   -1.1770   -1.0190 C   0  0  0  0  0  0  0  0  0  0  0  0
  -17.4860   -0.9260    0.4750 C   0  0  0  0  0  0  0  0  0  0  0  0
  -17.8760    0.0830    1.0030 O   0  0  0  0  0  0  0  0  0  0  0  0
  -16.9620   -1.8760    1.2900 N   0  0  0  0  0  0  0  0  0  0  0  0
  -16.3800   -3.0180    0.8320 C   0  0  0  0  0  0  0  0  0  0  0  0
  -16.0130   -3.7970    1.6840 O   0  0  0  0  0  0  0  0  0  0  0  0
  -14.9430   -5.1860   -1.6300 C   0  0  0  0  0  0  0  0  0  0  0  0
  -15.9300   -5.7370   -2.0910 O   0  0  0  0  0  0  0  0  0  0  0  0
   -5.8670    2.1440    1.0330 C   0  0  0  0  0  0  0  0  0  0  0  0
   -4.7570    2.3200   -0.0320 C   0  0  0  0  0  0  0  0  0  0  0  0
   -5.2340    3.4730   -0.9340 C   0  0  2  0  0  0  0  0  0  0  0  0
   -6.3440    3.0130   -1.9070 C   0  0  0  0  0  0  0  0  0  0  0  0
   -7.5960    4.3400   -1.8800 S   0  0  0  0  0  0  0  0  0  0  0  0
   -8.3660    3.9840   -0.3570 C   0  0  0  0  0  0  0  0  0  0  0  0
   -8.1800    4.8340    0.7370 C   0  0  0  0  0  0  0  0  0  0  0  0
   -8.7300    4.5090    1.9720 C   0  0  0  0  0  0  0  0  0  0  0  0
   -9.4820    3.3460    2.1200 C   0  0  0  0  0  0  0  0  0  0  0  0
   -9.6910    2.5100    1.0250 C   0  0  0  0  0  0  0  0  0  0  0  0
   -9.1400    2.8270   -0.2110 C   0  0  0  0  0  0  0  0  0  0  0  0
   -4.1240    3.9460   -1.7800 N   0  0  0  0  0  0  0  0  0  0  0  0
   -2.9560    4.4520   -1.1900 C   0  0  0  0  0  0  0  0  0  0  0  0
   -1.9070    3.5390   -1.0710 C   0  0  0  0  0  0  0  0  0  0  0  0
   -0.7070    3.9190   -0.4910 C   0  0  0  0  0  0  0  0  0  0  0  0
   -0.5210    5.2230   -0.0310 C   0  0  0  0  0  0  0  0  0  0  0  0
    1.0310    5.7050    0.7630 S   0  0  0  0  0  0  0  0  0  0  0  0
    0.7950    6.8000    1.6260 O   0  0  0  0  0  0  0  0  0  0  0  0
    1.6210    4.5620    1.3580 O   0  0  0  0  0  0  0  0  0  0  0  0
    2.0040    6.2330   -0.4540 N   0  0  0  0  0  0  0  0  0  0  0  0
    2.6710    5.2230   -1.0240 C   0  0  0  0  0  0  0  0  0  0  0  0
    2.0290    4.6710   -1.9030 O   0  0  0  0  0  0  0  0  0  0  0  0
    4.0290    4.8580   -0.6080 C   0  0  0  0  0  0  0  0  0  0  0  0
    4.7250    3.8470   -1.2930 C   0  0  0  0  0  0  0  0  0  0  0  0
    6.0210    3.5020   -0.9380 C   0  0  0  0  0  0  0  0  0  0  0  0
    6.6520    4.1640    0.1230 C   0  0  0  0  0  0  0  0  0  0  0  0
    7.9670    3.8620    0.5020 N   0  0  0  0  0  0  0  0  0  0  0  0
    8.1480    3.3590    1.8850 C   0  0  0  0  0  0  0  0  0  0  0  0
    9.6050    3.7020    2.2960 C   0  0  0  0  0  0  0  0  0  0  0  0
   10.5530    3.0410    1.3390 N   0  3  0  0  0  0  0  0  0  0  0  0
   11.9170    3.3750    1.7390 C   0  0  0  0  0  0  0  0  0  0  0  0
   12.7370    2.3020    1.0570 C   0  0  0  0  0  0  0  0  0  0  0  0
   13.4640    2.5210   -0.0610 C   0  0  0  0  0  0  0  0  0  0  0  0
   13.5590    3.8110   -0.7340 C   0  0  0  0  0  0  0  0  0  0  0  0
   13.1110    3.9570   -2.0540 C   0  0  0  0  0  0  0  0  0  0  0  0
   13.1640    5.1910   -2.6890 C   0  0  0  0  0  0  0  0  0  0  0  0
   13.6760    6.2990   -2.0130 C   0  0  0  0  0  0  0  0  0  0  0  0
   13.7260    7.8440   -2.7960 Cl  0  0  0  0  0  0  0  0  0  0  0  0
   14.1500    6.1630   -0.7070 C   0  0  0  0  0  0  0  0  0  0  0  0
   14.0950    4.9260   -0.0770 C   0  0  0  0  0  0  0  0  0  0  0  0
   14.2210    1.3520   -0.6660 C   0  0  0  0  0  0  0  0  0  0  0  0
   13.1610    0.2400   -0.8130 C   0  0  0  0  0  0  0  0  0  0  0  0
   12.5690   -0.1540    0.5770 C   0  0  0  0  0  0  0  0  0  0  0  0
   11.0680   -0.4470    0.3890 C   0  0  0  0  0  0  0  0  0  0  0  0
   13.2260   -1.4620    1.0500 C   0  0  0  0  0  0  0  0  0  0  0  0
   12.7640    0.9210    1.6960 C   0  0  0  0  0  0  0  0  0  0  0  0
   10.3240    3.6160   -0.0320 C   0  0  0  0  0  0  0  0  0  0  0  0
    8.8870    3.2660   -0.4950 C   0  0  0  0  0  0  0  0  0  0  0  0
    5.9700    5.1650    0.8230 C   0  0  0  0  0  0  0  0  0  0  0  0
    4.6750    5.5060    0.4610 C   0  0  0  0  0  0  0  0  0  0  0  0
   -1.5700    6.1380   -0.1700 C   0  0  0  0  0  0  0  0  0  0  0  0
   -2.7910    5.7850   -0.7590 C   0  0  0  0  0  0  0  0  0  0  0  0
   -4.0740    7.0550   -0.9100 S   0  0  0  0  0  0  0  0  0  0  0  0
   -3.5810    8.2490   -0.3100 O   0  0  0  0  0  0  0  0  0  0  0  0
   -5.2830    6.5520   -0.3460 O   0  0  0  0  0  0  0  0  0  0  0  0
   -4.2500    7.2990   -2.7830 C   0  0  0  0  0  0  0  0  0  0  0  0
   -3.0700    7.5130   -3.4130 F   0  0  0  0  0  0  0  0  0  0  0  0
   -4.7820    6.2300   -3.4320 F   0  0  0  0  0  0  0  0  0  0  0  0
   -5.0280    8.3420   -3.1480 F   0  0  0  0  0  0  0  0  0  0  0  0
   -4.0950    0.0860    3.0960 H   0  0  0  0  0  0  0  0  0  0  0  0
   -4.1190    1.8660    3.0790 H   0  0  0  0  0  0  0  0  0  0  0  0
   -3.5130    0.9700    1.6650 H   0  0  0  0  0  0  0  0  0  0  0  0
   -6.2910    0.9780    2.6520 H   0  0  0  0  0  0  0  0  0  0  0  0
   -5.4630   -0.1790    0.1050 H   0  0  0  0  0  0  0  0  0  0  0  0
   -5.2360   -1.1230    1.5970 H   0  0  0  0  0  0  0  0  0  0  0  0
   -7.6270   -0.7240    2.2170 H   0  0  0  0  0  0  0  0  0  0  0  0
   -7.8560    0.2300    0.7310 H   0  0  0  0  0  0  0  0  0  0  0  0
   -7.2360   -1.7390   -0.6470 H   0  0  0  0  0  0  0  0  0  0  0  0
   -6.9540   -2.6960    0.8280 H   0  0  0  0  0  0  0  0  0  0  0  0
   -9.6130   -1.4340    0.0240 H   0  0  0  0  0  0  0  0  0  0  0  0
   -9.3220   -2.4310    1.4690 H   0  0  0  0  0  0  0  0  0  0  0  0
   -8.7370   -4.3660   -0.0100 H   0  0  0  0  0  0  0  0  0  0  0  0
   -9.1030   -3.3640   -1.4360 H   0  0  0  0  0  0  0  0  0  0  0  0
  -11.2440   -3.1690    0.4720 H   0  0  0  0  0  0  0  0  0  0  0  0
   -9.7420   -6.0160   -1.2530 H   0  0  0  0  0  0  0  0  0  0  0  0
  -11.0650   -7.7600   -2.4040 H   0  0  0  0  0  0  0  0  0  0  0  0
  -13.5250   -7.5110   -2.6510 H   0  0  0  0  0  0  0  0  0  0  0  0
  -17.1240   -3.8910   -0.9780 H   0  0  0  0  0  0  0  0  0  0  0  0
  -15.4120   -1.3410   -1.2020 H   0  0  0  0  0  0  0  0  0  0  0  0
  -16.3150   -2.1140   -2.5270 H   0  0  0  0  0  0  0  0  0  0  0  0
  -18.4540   -1.7830   -1.2400 H   0  0  0  0  0  0  0  0  0  0  0  0
  -17.6460   -0.2280   -1.5500 H   0  0  0  0  0  0  0  0  0  0  0  0
  -17.0060   -1.7280    2.2880 H   0  0  0  0  0  0  0  0  0  0  0  0
   -6.8250    2.0220    0.5280 H   0  0  0  0  0  0  0  0  0  0  0  0
   -5.8980    3.0340    1.6620 H   0  0  0  0  0  0  0  0  0  0  0  0
   -4.6380    1.4060   -0.6130 H   0  0  0  0  0  0  0  0  0  0  0  0
   -3.8100    2.5750    0.4430 H   0  0  0  0  0  0  0  0  0  0  0  0
   -5.6050    4.2530   -0.2700 H   0  0  0  0  0  0  0  0  0  0  0  0
   -6.7790    2.0720   -1.5710 H   0  0  0  0  0  0  0  0  0  0  0  0
   -5.9420    2.8890   -2.9120 H   0  0  0  0  0  0  0  0  0  0  0  0
   -7.6090    5.7440    0.6230 H   0  0  0  0  0  0  0  0  0  0  0  0
   -8.5740    5.1600    2.8190 H   0  0  0  0  0  0  0  0  0  0  0  0
   -9.9020    3.0930    3.0820 H   0  0  0  0  0  0  0  0  0  0  0  0
  -10.2830    1.6130    1.1370 H   0  0  0  0  0  0  0  0  0  0  0  0
   -9.3090    2.1800   -1.0590 H   0  0  0  0  0  0  0  0  0  0  0  0
   -4.2040    3.9060   -2.7860 H   0  0  0  0  0  0  0  0  0  0  0  0
   -2.0310    2.5290   -1.4330 H   0  0  0  0  0  0  0  0  0  0  0  0
    0.0920    3.1990   -0.3940 H   0  0  0  0  0  0  0  0  0  0  0  0
    2.0870    7.1990   -0.7360 H   0  0  0  0  0  0  0  0  0  0  0  0
    4.2430    3.3300   -2.1090 H   0  0  0  0  0  0  0  0  0  0  0  0
    6.5420    2.7250   -1.4780 H   0  0  0  0  0  0  0  0  0  0  0  0
    7.4430    3.8470    2.5580 H   0  0  0  0  0  0  0  0  0  0  0  0
    7.9930    2.2810    1.9160 H   0  0  0  0  0  0  0  0  0  0  0  0
    9.7940    3.3390    3.3060 H   0  0  0  0  0  0  0  0  0  0  0  0
    9.7490    4.7820    2.2650 H   0  0  0  0  0  0  0  0  0  0  0  0
   10.4100    2.0410    1.3390 H   0  0  0  0  0  0  0  0  0  0  0  0
   12.1980    4.3680    1.3870 H   0  0  0  0  0  0  0  0  0  0  0  0
   12.0310    3.3280    2.8220 H   0  0  0  0  0  0  0  0  0  0  0  0
   12.7200    3.1000   -2.5830 H   0  0  0  0  0  0  0  0  0  0  0  0
   12.8100    5.2930   -3.7040 H   0  0  0  0  0  0  0  0  0  0  0  0
   14.5580    7.0170   -0.1880 H   0  0  0  0  0  0  0  0  0  0  0  0
   14.4700    4.8230    0.9310 H   0  0  0  0  0  0  0  0  0  0  0  0
   14.6340    1.6220   -1.6380 H   0  0  0  0  0  0  0  0  0  0  0  0
   15.0270    1.0310   -0.0060 H   0  0  0  0  0  0  0  0  0  0  0  0
   13.6240   -0.6370   -1.2650 H   0  0  0  0  0  0  0  0  0  0  0  0
   12.3560    0.5970   -1.4550 H   0  0  0  0  0  0  0  0  0  0  0  0
   10.9390   -1.1970   -0.3920 H   0  0  0  0  0  0  0  0  0  0  0  0
   10.5520    0.4690    0.1020 H   0  0  0  0  0  0  0  0  0  0  0  0
   10.6510   -0.8210    1.3240 H   0  0  0  0  0  0  0  0  0  0  0  0
   13.1030   -2.2280    0.2840 H   0  0  0  0  0  0  0  0  0  0  0  0
   12.7530   -1.7930    1.9750 H   0  0  0  0  0  0  0  0  0  0  0  0
   14.2880   -1.2920    1.2260 H   0  0  0  0  0  0  0  0  0  0  0  0
   13.7220    0.7650    2.1910 H   0  0  0  0  0  0  0  0  0  0  0  0
   11.9600    0.8390    2.4270 H   0  0  0  0  0  0  0  0  0  0  0  0
   10.4430    4.6990    0.0020 H   0  0  0  0  0  0  0  0  0  0  0  0
   11.0460    3.1930   -0.7310 H   0  0  0  0  0  0  0  0  0  0  0  0
    8.7550    2.1850   -0.5300 H   0  0  0  0  0  0  0  0  0  0  0  0
    8.6960    3.6870   -1.4820 H   0  0  0  0  0  0  0  0  0  0  0  0
    6.4520    5.6720    1.6460 H   0  0  0  0  0  0  0  0  0  0  0  0
    4.1550    6.2790    1.0070 H   0  0  0  0  0  0  0  0  0  0  0  0
   -1.4340    7.1480    0.1880 H   0  0  0  0  0  0  0  0  0  0  0  0
  1  2  1  0  0  0  0
  1 87  1  0  0  0  0
  1 88  1  0  0  0  0
  1 89  1  0  0  0  0
  2  3  1  0  0  0  0
  2 28  1  0  0  0  0
  2 90  1  0  0  0  0
  3  4  1  0  0  0  0
  3 91  1  0  0  0  0
  3 92  1  0  0  0  0
  4  5  1  0  0  0  0
  4 93  1  0  0  0  0
  4 94  1  0  0  0  0
  5  6  1  0  0  0  0
  5 95  1  0  0  0  0
  5 96  1  0  0  0  0
  6  7  1  0  0  0  0
  6 97  1  0  0  0  0
  6 98  1  0  0  0  0
  7  8  1  0  0  0  0
  7 99  1  0  0  0  0
  7100  1  0  0  0  0
  8  9  1  0  0  0  0
  8101  1  0  0  0  0
  9 10  1  0  0  0  0
  9 14  2  0  0  0  0
 10 11  2  0  0  0  0
 10102  1  0  0  0  0
 11 12  1  0  0  0  0
 11103  1  0  0  0  0
 12 13  2  0  0  0  0
 12104  1  0  0  0  0
 13 14  1  0  0  0  0
 13 26  1  0  0  0  0
 14 15  1  0  0  0  0
 15 16  2  0  0  0  0
 15 17  1  0  0  0  0
 17 18  1  0  0  0  0
 17 26  1  0  0  0  0
 18 19  1  0  0  0  0
 18 24  1  0  0  0  0
 18105  1  0  0  0  0
 19 20  1  0  0  0  0
 19106  1  0  0  0  0
 19107  1  0  0  0  0
 20 21  1  0  0  0  0
 20108  1  0  0  0  0
 20109  1  0  0  0  0
 21 22  2  0  0  0  0
 21 23  1  0  0  0  0
 23 24  1  0  0  0  0
 23110  1  0  0  0  0
 24 25  2  0  0  0  0
 26 27  2  0  0  0  0
 28 29  1  0  0  0  0
 28111  1  0  0  0  0
 28112  1  0  0  0  0
 29 30  1  0  0  0  0
 29113  1  0  0  0  0
 29114  1  0  0  0  0
 30 31  1  0  0  0  0
 30 39  1  0  0  0  0
 30115  1  0  0  0  0
 31 32  1  0  0  0  0
 31116  1  0  0  0  0
 31117  1  0  0  0  0
 32 33  1  0  0  0  0
 33 34  1  0  0  0  0
 33 38  2  0  0  0  0
 34 35  2  0  0  0  0
 34118  1  0  0  0  0
 35 36  1  0  0  0  0
 35119  1  0  0  0  0
 36 37  2  0  0  0  0
 36120  1  0  0  0  0
 37 38  1  0  0  0  0
 37121  1  0  0  0  0
 38122  1  0  0  0  0
 39 40  1  0  0  0  0
 39123  1  0  0  0  0
 40 41  1  0  0  0  0
 40 79  2  0  0  0  0
 41 42  2  0  0  0  0
 41124  1  0  0  0  0
 42 43  1  0  0  0  0
 42125  1  0  0  0  0
 43 44  1  0  0  0  0
 43 78  2  0  0  0  0
 44 45  2  0  0  0  0
 44 46  2  0  0  0  0
 44 47  1  0  0  0  0
 47 48  1  0  0  0  0
 47126  1  0  0  0  0
 48 49  2  0  0  0  0
 48 50  1  0  0  0  0
 50 51  1  0  0  0  0
 50 77  2  0  0  0  0
 51 52  2  0  0  0  0
 51127  1  0  0  0  0
 52 53  1  0  0  0  0
 52128  1  0  0  0  0
 53 54  1  0  0  0  0
 53 76  2  0  0  0  0
 54 55  1  0  0  0  0
 54 75  1  0  0  0  0
 55 56  1  0  0  0  0
 55129  1  0  0  0  0
 55130  1  0  0  0  0
 56 57  1  0  0  0  0
 56131  1  0  0  0  0
 56132  1  0  0  0  0
 57 58  1  0  0  0  0
 57 74  1  0  0  0  0
 57133  1  0  0  0  0
 58 59  1  0  0  0  0
 58134  1  0  0  0  0
 58135  1  0  0  0  0
 59 60  2  0  0  0  0
 59 73  1  0  0  0  0
 60 61  1  0  0  0  0
 60 68  1  0  0  0  0
 61 62  1  0  0  0  0
 61 67  2  0  0  0  0
 62 63  2  0  0  0  0
 62136  1  0  0  0  0
 63 64  1  0  0  0  0
 63137  1  0  0  0  0
 64 65  1  0  0  0  0
 64 66  2  0  0  0  0
 66 67  1  0  0  0  0
 66138  1  0  0  0  0
 67139  1  0  0  0  0
 68 69  1  0  0  0  0
 68140  1  0  0  0  0
 68141  1  0  0  0  0
 69 70  1  0  0  0  0
 69142  1  0  0  0  0
 69143  1  0  0  0  0
 70 71  1  0  0  0  0
 70 72  1  0  0  0  0
 70 73  1  0  0  0  0
 71144  1  0  0  0  0
 71145  1  0  0  0  0
 71146  1  0  0  0  0
 72147  1  0  0  0  0
 72148  1  0  0  0  0
 72149  1  0  0  0  0
 73150  1  0  0  0  0
 73151  1  0  0  0  0
 74 75  1  0  0  0  0
 74152  1  0  0  0  0
 74153  1  0  0  0  0
 75154  1  0  0  0  0
 75155  1  0  0  0  0
 76 77  1  0  0  0  0
 76156  1  0  0  0  0
 77157  1  0  0  0  0
 78 79  1  0  0  0  0
 78158  1  0  0  0  0
 79 80  1  0  0  0  0
 80 81  2  0  0  0  0
 80 82  2  0  0  0  0
 80 83  1  0  0  0  0
 83 84  1  0  0  0  0
 83 85  1  0  0  0  0
 83 86  1  0  0  0  0
M  CHG  1   2   1
M  CHG  1  57   1
M  END
>  <Compound ID>
666

>  <Uniprot>
Q07817

>  <Target>
BCL-xL

>  <E3 ligase>
CRBN

>  <IC50 (nM, Cellular activities)>
60.9

>  <Assay (Cellular activities, IC50)>
Inhibit viability of MOLT-4 cells

>  <Article DOI>
10.1016/j.ejmech.2020.112186

>  <Molecular Weight>
1259.937

>  <Exact Mass>
1258.4069

>  <XLogP3>
11.46

>  <Heavy Atom Count>
86

>  <Ring Count>
9

>  <Hydrogen Bond Acceptor Count>
15

>  <Hydrogen Bond Donor Count>
4

>  <Rotatable Bond Count>
24

>  <Topological Polar Surface Area>
214.71001

>  <Molecular Formula>
C62H70ClF3N8O9S3

>  <InChI>
InChI=1S/C62H70ClF3N8O9S3/c1-61(2)29-27-49(41-15-19-44(63)20-16-41)43(38-61)39-72-33-35-73(36-34-72)46-21-17-42(18-22-46)57(76)70-86(82,83)48-23-24-51(54(37-48)85(80,81)62(64,65)66)68-45(40-84-47-11-6-4-7-12-47)28-32-71(3)31-9-5-8-30-67-52-14-10-13-50-56(52)60(79)74(59(50)78)53-25-26-55(75)69-58(53)77/h4,6-7,10-24,37,45,53,67-68H,5,8-9,25-36,38-40H2,1-3H3,(H,70,76)(H,69,75,77)/t45-,53?/m1/s1

>  <InChI Key>
QFCDHMSALJXVSD-HVMLLUAGSA-N

$$$$
667
  MOE2018           3D

161169  0  0  1  0  0  0  0  0999 V2000
    0.1590   -1.5970   -0.6990 C   0  0  0  0  0  0  0  0  0  0  0  0
    0.7720   -2.8570   -0.1980 N   0  3  2  0  0  0  0  0  0  0  0  0
   -0.1390   -3.4880    0.7750 C   0  0  0  0  0  0  0  0  0  0  0  0
   -1.1810   -4.2570   -0.0500 C   0  0  0  0  0  0  0  0  0  0  0  0
   -2.0900   -4.9630    0.9680 C   0  0  0  0  0  0  0  0  0  0  0  0
   -3.2190   -5.7050    0.2420 C   0  0  0  0  0  0  0  0  0  0  0  0
   -4.1280   -6.4320    1.2510 C   0  0  0  0  0  0  0  0  0  0  0  0
   -5.2920   -7.1680    0.5760 C   0  0  0  0  0  0  0  0  0  0  0  0
   -6.1810   -6.1210    0.0830 N   0  0  0  0  0  0  0  0  0  0  0  0
   -7.4920   -6.3030   -0.3630 C   0  0  0  0  0  0  0  0  0  0  0  0
   -8.2400   -5.1200   -0.4560 C   0  0  0  0  0  0  0  0  0  0  0  0
   -9.5630   -5.1410   -0.8940 C   0  0  0  0  0  0  0  0  0  0  0  0
  -10.1640   -6.3450   -1.2530 C   0  0  0  0  0  0  0  0  0  0  0  0
   -9.4170   -7.5170   -1.1620 C   0  0  0  0  0  0  0  0  0  0  0  0
   -8.0990   -7.5300   -0.7260 C   0  0  0  0  0  0  0  0  0  0  0  0
   -7.6720   -8.9160   -0.7660 C   0  0  0  0  0  0  0  0  0  0  0  0
   -6.6220   -9.4600   -0.4470 O   0  0  0  0  0  0  0  0  0  0  0  0
   -8.7290   -9.6880   -1.2300 N   0  0  0  0  0  0  0  0  0  0  0  0
   -8.7170  -11.1260   -1.5490 C   0  0  2  0  0  0  0  0  0  0  0  0
   -8.5590  -11.9150   -0.2230 C   0  0  0  0  0  0  0  0  0  0  0  0
   -8.4520  -13.4110   -0.6000 C   0  0  0  0  0  0  0  0  0  0  0  0
   -7.2240  -13.5890   -1.4730 C   0  0  0  0  0  0  0  0  0  0  0  0
   -6.5040  -14.5530   -1.4170 O   0  0  0  0  0  0  0  0  0  0  0  0
   -6.9020  -12.6430   -2.3920 N   0  0  0  0  0  0  0  0  0  0  0  0
   -7.5570  -11.4540   -2.5040 C   0  0  0  0  0  0  0  0  0  0  0  0
   -7.1960  -10.7410   -3.4130 O   0  0  0  0  0  0  0  0  0  0  0  0
   -9.8040   -8.8700   -1.4730 C   0  0  0  0  0  0  0  0  0  0  0  0
  -10.8750   -9.3020   -1.8700 O   0  0  0  0  0  0  0  0  0  0  0  0
    1.9960   -2.5090    0.5420 C   0  0  0  0  0  0  0  0  0  0  0  0
    3.1210   -2.4540   -0.5050 C   0  0  0  0  0  0  0  0  0  0  0  0
    4.4220   -2.1480    0.2670 C   0  0  2  0  0  0  0  0  0  0  0  0
    4.8410   -0.6660    0.1660 C   0  0  0  0  0  0  0  0  0  0  0  0
    3.5260    0.3160    0.9730 S   0  0  0  0  0  0  0  0  0  0  0  0
    3.9230    2.0070    0.7430 C   0  0  0  0  0  0  0  0  0  0  0  0
    3.0740    2.9680    1.3040 C   0  0  0  0  0  0  0  0  0  0  0  0
    3.3390    4.3220    1.1430 C   0  0  0  0  0  0  0  0  0  0  0  0
    4.4560    4.7360    0.4220 C   0  0  0  0  0  0  0  0  0  0  0  0
    5.3080    3.7880   -0.1360 C   0  0  0  0  0  0  0  0  0  0  0  0
    5.0490    2.4310    0.0200 C   0  0  0  0  0  0  0  0  0  0  0  0
    5.4800   -2.9650   -0.3630 N   0  0  0  0  0  0  0  0  0  0  0  0
    6.4860   -3.3700    0.5130 C   0  0  0  0  0  0  0  0  0  0  0  0
    7.6240   -2.5680    0.6190 C   0  0  0  0  0  0  0  0  0  0  0  0
    8.6290   -2.9070    1.5130 C   0  0  0  0  0  0  0  0  0  0  0  0
    8.5340   -4.0650    2.2900 C   0  0  0  0  0  0  0  0  0  0  0  0
    9.8490   -4.4930    3.4560 S   0  0  0  0  0  0  0  0  0  0  0  0
    9.3590   -5.4750    4.3490 O   0  0  0  0  0  0  0  0  0  0  0  0
   10.3590   -3.3030    4.0290 O   0  0  0  0  0  0  0  0  0  0  0  0
   11.0310   -5.1460    2.5100 N   0  0  0  0  0  0  0  0  0  0  0  0
   12.2460   -5.3460    3.0710 C   0  0  0  0  0  0  0  0  0  0  0  0
   12.2950   -5.7350    4.2250 O   0  0  0  0  0  0  0  0  0  0  0  0
   13.4340   -5.1130    2.2520 C   0  0  0  0  0  0  0  0  0  0  0  0
   13.4750   -4.0790    1.2970 C   0  0  0  0  0  0  0  0  0  0  0  0
   14.6060   -3.8690    0.5210 C   0  0  0  0  0  0  0  0  0  0  0  0
   15.7320   -4.6880    0.6900 C   0  0  0  0  0  0  0  0  0  0  0  0
   16.8960   -4.5030   -0.0740 N   0  0  0  0  0  0  0  0  0  0  0  0
   16.7940   -3.7910   -1.3730 C   0  0  0  0  0  0  0  0  0  0  0  0
   18.0430   -4.1830   -2.2050 C   0  0  0  0  0  0  0  0  0  0  0  0
   19.2670   -3.7570   -1.4570 N   0  3  0  0  0  0  0  0  0  0  0  0
   20.4380   -4.0860   -2.2690 C   0  0  0  0  0  0  0  0  0  0  0  0
   21.5360   -3.2250   -1.6750 C   0  0  0  0  0  0  0  0  0  0  0  0
   22.5060   -3.7470   -0.8820 C   0  0  0  0  0  0  0  0  0  0  0  0
   22.5880   -5.1710   -0.5760 C   0  0  0  0  0  0  0  0  0  0  0  0
   22.4070   -5.6310    0.7350 C   0  0  0  0  0  0  0  0  0  0  0  0
   22.4500   -6.9900    1.0220 C   0  0  0  0  0  0  0  0  0  0  0  0
   22.6880   -7.9100   -0.0010 C   0  0  0  0  0  0  0  0  0  0  0  0
   22.7250   -9.6050    0.3510 Cl  0  0  0  0  0  0  0  0  0  0  0  0
   22.8970   -7.4630   -1.3060 C   0  0  0  0  0  0  0  0  0  0  0  0
   22.8530   -6.1030   -1.5880 C   0  0  0  0  0  0  0  0  0  0  0  0
   23.6380   -2.9130   -0.2900 C   0  0  0  0  0  0  0  0  0  0  0  0
   23.3050   -1.4100   -0.3700 C   0  0  0  0  0  0  0  0  0  0  0  0
   22.8050   -1.0550   -1.7850 C   0  0  0  0  0  0  0  0  0  0  0  0
   23.8090   -1.4070   -2.9030 C   0  0  0  0  0  0  0  0  0  0  0  0
   22.6060    0.4710   -1.8330 C   0  0  0  0  0  0  0  0  0  0  0  0
   21.4420   -1.7400   -2.0280 C   0  0  0  0  0  0  0  0  0  0  0  0
   19.3420   -4.5590   -0.1900 C   0  0  0  0  0  0  0  0  0  0  0  0
   18.1280   -4.1980    0.7050 C   0  0  0  0  0  0  0  0  0  0  0  0
   15.7060   -5.7160    1.6380 C   0  0  0  0  0  0  0  0  0  0  0  0
   14.5720   -5.9190    2.4130 C   0  0  0  0  0  0  0  0  0  0  0  0
    7.3980   -4.8720    2.1560 C   0  0  0  0  0  0  0  0  0  0  0  0
    6.3680   -4.5490    1.2650 C   0  0  0  0  0  0  0  0  0  0  0  0
    4.9640   -5.6710    1.0610 S   0  0  0  0  0  0  0  0  0  0  0  0
    5.1470   -6.7660    1.9510 O   0  0  0  0  0  0  0  0  0  0  0  0
    3.7430   -4.9450    1.2480 O   0  0  0  0  0  0  0  0  0  0  0  0
    5.1290   -6.2640   -0.7400 C   0  0  0  0  0  0  0  0  0  0  0  0
    6.4050   -6.2660   -1.2030 F   0  0  0  0  0  0  0  0  0  0  0  0
    4.4390   -5.5260   -1.6480 F   0  0  0  0  0  0  0  0  0  0  0  0
    4.6920   -7.5270   -0.9480 F   0  0  0  0  0  0  0  0  0  0  0  0
   -0.7510   -1.8300   -1.2520 H   0  0  0  0  0  0  0  0  0  0  0  0
    0.8630   -1.0870   -1.3570 H   0  0  0  0  0  0  0  0  0  0  0  0
   -0.0840   -0.9510    0.1440 H   0  0  0  0  0  0  0  0  0  0  0  0
    0.9590   -3.4740   -0.9760 H   0  0  0  0  0  0  0  0  0  0  0  0
    0.4120   -4.1720    1.4200 H   0  0  0  0  0  0  0  0  0  0  0  0
   -0.6260   -2.7270    1.3850 H   0  0  0  0  0  0  0  0  0  0  0  0
   -1.7620   -3.5680   -0.6630 H   0  0  0  0  0  0  0  0  0  0  0  0
   -0.6910   -4.9890   -0.6920 H   0  0  0  0  0  0  0  0  0  0  0  0
   -1.5010   -5.6770    1.5430 H   0  0  0  0  0  0  0  0  0  0  0  0
   -2.5210   -4.2220    1.6410 H   0  0  0  0  0  0  0  0  0  0  0  0
   -2.7860   -6.4360   -0.4410 H   0  0  0  0  0  0  0  0  0  0  0  0
   -3.8140   -4.9870   -0.3230 H   0  0  0  0  0  0  0  0  0  0  0  0
   -4.5360   -5.6970    1.9450 H   0  0  0  0  0  0  0  0  0  0  0  0
   -3.5280   -7.1580    1.8010 H   0  0  0  0  0  0  0  0  0  0  0  0
   -5.8110   -7.8010    1.2960 H   0  0  0  0  0  0  0  0  0  0  0  0
   -4.9290   -7.7790   -0.2500 H   0  0  0  0  0  0  0  0  0  0  0  0
   -5.8150   -5.1800    0.0620 H   0  0  0  0  0  0  0  0  0  0  0  0
   -7.7840   -4.1790   -0.1840 H   0  0  0  0  0  0  0  0  0  0  0  0
  -10.1240   -4.2200   -0.9550 H   0  0  0  0  0  0  0  0  0  0  0  0
  -11.1880   -6.3690   -1.5950 H   0  0  0  0  0  0  0  0  0  0  0  0
   -9.6480  -11.4050   -2.0430 H   0  0  0  0  0  0  0  0  0  0  0  0
   -7.6570  -11.5950    0.2990 H   0  0  0  0  0  0  0  0  0  0  0  0
   -9.4260  -11.7510    0.4160 H   0  0  0  0  0  0  0  0  0  0  0  0
   -9.3430  -13.7190   -1.1480 H   0  0  0  0  0  0  0  0  0  0  0  0
   -8.3540  -14.0140    0.3030 H   0  0  0  0  0  0  0  0  0  0  0  0
   -6.1380  -12.8300   -3.0250 H   0  0  0  0  0  0  0  0  0  0  0  0
    1.8830   -1.5400    1.0280 H   0  0  0  0  0  0  0  0  0  0  0  0
    2.2140   -3.2690    1.2930 H   0  0  0  0  0  0  0  0  0  0  0  0
    2.9210   -1.6670   -1.2320 H   0  0  0  0  0  0  0  0  0  0  0  0
    3.2040   -3.4120   -1.0190 H   0  0  0  0  0  0  0  0  0  0  0  0
    4.2680   -2.3710    1.3230 H   0  0  0  0  0  0  0  0  0  0  0  0
    4.9380   -0.3750   -0.8800 H   0  0  0  0  0  0  0  0  0  0  0  0
    5.7920   -0.5100    0.6760 H   0  0  0  0  0  0  0  0  0  0  0  0
    2.2070    2.6550    1.8660 H   0  0  0  0  0  0  0  0  0  0  0  0
    2.6770    5.0560    1.5780 H   0  0  0  0  0  0  0  0  0  0  0  0
    4.6600    5.7890    0.2960 H   0  0  0  0  0  0  0  0  0  0  0  0
    6.1760    4.1080   -0.6940 H   0  0  0  0  0  0  0  0  0  0  0  0
    5.7160    1.7020   -0.4160 H   0  0  0  0  0  0  0  0  0  0  0  0
    5.4750   -3.2090   -1.3430 H   0  0  0  0  0  0  0  0  0  0  0  0
    7.7220   -1.6850    0.0060 H   0  0  0  0  0  0  0  0  0  0  0  0
    9.4950   -2.2690    1.6100 H   0  0  0  0  0  0  0  0  0  0  0  0
   10.8540   -5.3880    1.5460 H   0  0  0  0  0  0  0  0  0  0  0  0
   12.6140   -3.4400    1.1670 H   0  0  0  0  0  0  0  0  0  0  0  0
   14.6190   -3.0760   -0.2120 H   0  0  0  0  0  0  0  0  0  0  0  0
   15.8860   -4.0940   -1.8950 H   0  0  0  0  0  0  0  0  0  0  0  0
   16.7770   -2.7140   -1.2090 H   0  0  0  0  0  0  0  0  0  0  0  0
   18.0110   -3.6830   -3.1730 H   0  0  0  0  0  0  0  0  0  0  0  0
   18.0610   -5.2630   -2.3540 H   0  0  0  0  0  0  0  0  0  0  0  0
   19.2360   -2.7680   -1.2570 H   0  0  0  0  0  0  0  0  0  0  0  0
   20.6850   -5.1440   -2.1850 H   0  0  0  0  0  0  0  0  0  0  0  0
   20.2690   -3.8340   -3.3160 H   0  0  0  0  0  0  0  0  0  0  0  0
   22.2320   -4.9220    1.5310 H   0  0  0  0  0  0  0  0  0  0  0  0
   22.3000   -7.3340    2.0350 H   0  0  0  0  0  0  0  0  0  0  0  0
   23.0930   -8.1730   -2.0960 H   0  0  0  0  0  0  0  0  0  0  0  0
   23.0250   -5.7610   -2.5980 H   0  0  0  0  0  0  0  0  0  0  0  0
   23.7810   -3.1930    0.7540 H   0  0  0  0  0  0  0  0  0  0  0  0
   24.5550   -3.1070   -0.8470 H   0  0  0  0  0  0  0  0  0  0  0  0
   24.2000   -0.8300   -0.1470 H   0  0  0  0  0  0  0  0  0  0  0  0
   22.5280   -1.1730    0.3570 H   0  0  0  0  0  0  0  0  0  0  0  0
   24.7600   -0.9110   -2.7070 H   0  0  0  0  0  0  0  0  0  0  0  0
   23.4160   -1.0720   -3.8630 H   0  0  0  0  0  0  0  0  0  0  0  0
   23.9600   -2.4860   -2.9290 H   0  0  0  0  0  0  0  0  0  0  0  0
   23.5610    0.9670   -1.6630 H   0  0  0  0  0  0  0  0  0  0  0  0
   21.8980    0.7700   -1.0600 H   0  0  0  0  0  0  0  0  0  0  0  0
   22.2170    0.7560   -2.8110 H   0  0  0  0  0  0  0  0  0  0  0  0
   21.1660   -1.6350   -3.0770 H   0  0  0  0  0  0  0  0  0  0  0  0
   20.6840   -1.2670   -1.4040 H   0  0  0  0  0  0  0  0  0  0  0  0
   19.3180   -5.6220   -0.4280 H   0  0  0  0  0  0  0  0  0  0  0  0
   20.2670   -4.3260    0.3370 H   0  0  0  0  0  0  0  0  0  0  0  0
   18.1550   -3.1390    0.9600 H   0  0  0  0  0  0  0  0  0  0  0  0
   18.1480   -4.7920    1.6180 H   0  0  0  0  0  0  0  0  0  0  0  0
   16.5690   -6.3530    1.7670 H   0  0  0  0  0  0  0  0  0  0  0  0
   14.5650   -6.7080    3.1500 H   0  0  0  0  0  0  0  0  0  0  0  0
    7.3140   -5.7670    2.7550 H   0  0  0  0  0  0  0  0  0  0  0  0
  1  2  1  0  0  0  0
  1 88  1  0  0  0  0
  1 89  1  0  0  0  0
  1 90  1  0  0  0  0
  2  3  1  0  0  0  0
  2 29  1  0  0  0  0
  2 91  1  0  0  0  0
  3  4  1  0  0  0  0
  3 92  1  0  0  0  0
  3 93  1  0  0  0  0
  4  5  1  0  0  0  0
  4 94  1  0  0  0  0
  4 95  1  0  0  0  0
  5  6  1  0  0  0  0
  5 96  1  0  0  0  0
  5 97  1  0  0  0  0
  6  7  1  0  0  0  0
  6 98  1  0  0  0  0
  6 99  1  0  0  0  0
  7  8  1  0  0  0  0
  7100  1  0  0  0  0
  7101  1  0  0  0  0
  8  9  1  0  0  0  0
  8102  1  0  0  0  0
  8103  1  0  0  0  0
  9 10  1  0  0  0  0
  9104  1  0  0  0  0
 10 11  1  0  0  0  0
 10 15  2  0  0  0  0
 11 12  2  0  0  0  0
 11105  1  0  0  0  0
 12 13  1  0  0  0  0
 12106  1  0  0  0  0
 13 14  2  0  0  0  0
 13107  1  0  0  0  0
 14 15  1  0  0  0  0
 14 27  1  0  0  0  0
 15 16  1  0  0  0  0
 16 17  2  0  0  0  0
 16 18  1  0  0  0  0
 18 19  1  0  0  0  0
 18 27  1  0  0  0  0
 19 20  1  0  0  0  0
 19 25  1  0  0  0  0
 19108  1  0  0  0  0
 20 21  1  0  0  0  0
 20109  1  0  0  0  0
 20110  1  0  0  0  0
 21 22  1  0  0  0  0
 21111  1  0  0  0  0
 21112  1  0  0  0  0
 22 23  2  0  0  0  0
 22 24  1  0  0  0  0
 24 25  1  0  0  0  0
 24113  1  0  0  0  0
 25 26  2  0  0  0  0
 27 28  2  0  0  0  0
 29 30  1  0  0  0  0
 29114  1  0  0  0  0
 29115  1  0  0  0  0
 30 31  1  0  0  0  0
 30116  1  0  0  0  0
 30117  1  0  0  0  0
 31 32  1  0  0  0  0
 31 40  1  0  0  0  0
 31118  1  0  0  0  0
 32 33  1  0  0  0  0
 32119  1  0  0  0  0
 32120  1  0  0  0  0
 33 34  1  0  0  0  0
 34 35  1  0  0  0  0
 34 39  2  0  0  0  0
 35 36  2  0  0  0  0
 35121  1  0  0  0  0
 36 37  1  0  0  0  0
 36122  1  0  0  0  0
 37 38  2  0  0  0  0
 37123  1  0  0  0  0
 38 39  1  0  0  0  0
 38124  1  0  0  0  0
 39125  1  0  0  0  0
 40 41  1  0  0  0  0
 40126  1  0  0  0  0
 41 42  1  0  0  0  0
 41 80  2  0  0  0  0
 42 43  2  0  0  0  0
 42127  1  0  0  0  0
 43 44  1  0  0  0  0
 43128  1  0  0  0  0
 44 45  1  0  0  0  0
 44 79  2  0  0  0  0
 45 46  2  0  0  0  0
 45 47  2  0  0  0  0
 45 48  1  0  0  0  0
 48 49  1  0  0  0  0
 48129  1  0  0  0  0
 49 50  2  0  0  0  0
 49 51  1  0  0  0  0
 51 52  1  0  0  0  0
 51 78  2  0  0  0  0
 52 53  2  0  0  0  0
 52130  1  0  0  0  0
 53 54  1  0  0  0  0
 53131  1  0  0  0  0
 54 55  1  0  0  0  0
 54 77  2  0  0  0  0
 55 56  1  0  0  0  0
 55 76  1  0  0  0  0
 56 57  1  0  0  0  0
 56132  1  0  0  0  0
 56133  1  0  0  0  0
 57 58  1  0  0  0  0
 57134  1  0  0  0  0
 57135  1  0  0  0  0
 58 59  1  0  0  0  0
 58 75  1  0  0  0  0
 58136  1  0  0  0  0
 59 60  1  0  0  0  0
 59137  1  0  0  0  0
 59138  1  0  0  0  0
 60 61  2  0  0  0  0
 60 74  1  0  0  0  0
 61 62  1  0  0  0  0
 61 69  1  0  0  0  0
 62 63  1  0  0  0  0
 62 68  2  0  0  0  0
 63 64  2  0  0  0  0
 63139  1  0  0  0  0
 64 65  1  0  0  0  0
 64140  1  0  0  0  0
 65 66  1  0  0  0  0
 65 67  2  0  0  0  0
 67 68  1  0  0  0  0
 67141  1  0  0  0  0
 68142  1  0  0  0  0
 69 70  1  0  0  0  0
 69143  1  0  0  0  0
 69144  1  0  0  0  0
 70 71  1  0  0  0  0
 70145  1  0  0  0  0
 70146  1  0  0  0  0
 71 72  1  0  0  0  0
 71 73  1  0  0  0  0
 71 74  1  0  0  0  0
 72147  1  0  0  0  0
 72148  1  0  0  0  0
 72149  1  0  0  0  0
 73150  1  0  0  0  0
 73151  1  0  0  0  0
 73152  1  0  0  0  0
 74153  1  0  0  0  0
 74154  1  0  0  0  0
 75 76  1  0  0  0  0
 75155  1  0  0  0  0
 75156  1  0  0  0  0
 76157  1  0  0  0  0
 76158  1  0  0  0  0
 77 78  1  0  0  0  0
 77159  1  0  0  0  0
 78160  1  0  0  0  0
 79 80  1  0  0  0  0
 79161  1  0  0  0  0
 80 81  1  0  0  0  0
 81 82  2  0  0  0  0
 81 83  2  0  0  0  0
 81 84  1  0  0  0  0
 84 85  1  0  0  0  0
 84 86  1  0  0  0  0
 84 87  1  0  0  0  0
M  CHG  1   2   1
M  CHG  1  58   1
M  END
>  <Compound ID>
667

>  <Uniprot>
Q07817

>  <Target>
BCL-xL

>  <E3 ligase>
CRBN

>  <IC50 (nM, Cellular activities)>
147

>  <Assay (Cellular activities, IC50)>
Inhibit viability of MOLT-4 cells

>  <Article DOI>
10.1016/j.ejmech.2020.112186

>  <Molecular Weight>
1273.964

>  <Exact Mass>
1272.4225

>  <XLogP3>
11.81

>  <Heavy Atom Count>
87

>  <Ring Count>
9

>  <Hydrogen Bond Acceptor Count>
15

>  <Hydrogen Bond Donor Count>
4

>  <Rotatable Bond Count>
25

>  <Topological Polar Surface Area>
214.71001

>  <Molecular Formula>
C63H72ClF3N8O9S3

>  <InChI>
InChI=1S/C63H72ClF3N8O9S3/c1-62(2)30-28-50(42-16-20-45(64)21-17-42)44(39-62)40-73-34-36-74(37-35-73)47-22-18-43(19-23-47)58(77)71-87(83,84)49-24-25-52(55(38-49)86(81,82)63(65,66)67)69-46(41-85-48-12-7-6-8-13-48)29-33-72(3)32-10-5-4-9-31-68-53-15-11-14-51-57(53)61(80)75(60(51)79)54-26-27-56(76)70-59(54)78/h6-8,11-25,38,46,54,68-69H,4-5,9-10,26-37,39-41H2,1-3H3,(H,71,77)(H,70,76,78)/t46-,54?/m1/s1

>  <InChI Key>
WBUJSZMOSBBKIF-MFJGLPAGSA-N

$$$$
668
  MOE2018           3D

167175  0  0  1  0  0  0  0  0999 V2000
    8.3530    0.8980   -1.6430 C   0  0  0  0  0  0  0  0  0  0  0  0
    8.6350    2.1750   -0.9290 N   0  3  1  0  0  0  0  0  0  0  0  0
    9.9940    2.6240   -1.2870 C   0  0  0  0  0  0  0  0  0  0  0  0
   10.9370    1.8970   -0.3150 C   0  0  0  0  0  0  0  0  0  0  0  0
   12.3580    2.3670   -0.6590 C   0  0  0  0  0  0  0  0  0  0  0  0
   13.3840    1.6520    0.2300 C   0  0  0  0  0  0  0  0  0  0  0  0
   14.8080    2.0930   -0.1340 C   0  0  0  0  0  0  0  0  0  0  0  0
   15.8410    1.3450    0.7180 C   0  0  0  0  0  0  0  0  0  0  0  0
   17.2640    1.7660    0.3230 C   0  0  0  0  0  0  0  0  0  0  0  0
   18.3110    1.0040    1.1380 C   0  0  0  0  0  0  0  0  0  0  0  0
   19.5870    1.4900    0.6290 N   0  0  0  0  0  0  0  0  0  0  0  0
   20.8010    1.0890    1.1760 C   0  0  0  0  0  0  0  0  0  0  0  0
   20.9680   -0.1710    1.7720 C   0  0  0  0  0  0  0  0  0  0  0  0
   22.2120   -0.5400    2.2910 C   0  0  0  0  0  0  0  0  0  0  0  0
   23.3010    0.3340    2.2220 C   0  0  0  0  0  0  0  0  0  0  0  0
   23.1200    1.5830    1.6270 C   0  0  0  0  0  0  0  0  0  0  0  0
   21.8940    1.9590    1.1150 C   0  0  0  0  0  0  0  0  0  0  0  0
   22.0200    3.2930    0.5970 C   0  0  0  0  0  0  0  0  0  0  0  0
   21.1710    4.0280    0.1020 O   0  0  0  0  0  0  0  0  0  0  0  0
   23.3330    3.7020    0.7880 N   0  0  0  0  0  0  0  0  0  0  0  0
   23.9540    4.9470    0.3130 C   0  0  2  0  0  0  0  0  0  0  0  0
   23.3300    6.1240    1.1080 C   0  0  0  0  0  0  0  0  0  0  0  0
   23.9120    7.4280    0.5140 C   0  0  0  0  0  0  0  0  0  0  0  0
   23.5000    7.5020   -0.9440 C   0  0  0  0  0  0  0  0  0  0  0  0
   23.1960    8.5270   -1.4970 O   0  0  0  0  0  0  0  0  0  0  0  0
   23.4830    6.3740   -1.7000 N   0  0  0  0  0  0  0  0  0  0  0  0
   23.6980    5.1290   -1.1930 C   0  0  0  0  0  0  0  0  0  0  0  0
   23.7180    4.2300   -2.0030 O   0  0  0  0  0  0  0  0  0  0  0  0
   24.0280    2.6860    1.4170 C   0  0  0  0  0  0  0  0  0  0  0  0
   25.2050    2.7970    1.7220 O   0  0  0  0  0  0  0  0  0  0  0  0
    7.6920    3.2020   -1.4120 C   0  0  0  0  0  0  0  0  0  0  0  0
    6.4560    3.0830   -0.5080 C   0  0  0  0  0  0  0  0  0  0  0  0
    5.3620    4.0290   -1.0380 C   0  0  2  0  0  0  0  0  0  0  0  0
    5.6460    5.5310   -0.8550 C   0  0  0  0  0  0  0  0  0  0  0  0
    6.6940    6.0360   -2.2690 S   0  0  0  0  0  0  0  0  0  0  0  0
    7.4810    7.5240   -1.7870 C   0  0  0  0  0  0  0  0  0  0  0  0
    8.5760    7.9690   -2.5360 C   0  0  0  0  0  0  0  0  0  0  0  0
    9.2500    9.1290   -2.1740 C   0  0  0  0  0  0  0  0  0  0  0  0
    8.8360    9.8630   -1.0670 C   0  0  0  0  0  0  0  0  0  0  0  0
    7.7380    9.4370   -0.3260 C   0  0  0  0  0  0  0  0  0  0  0  0
    7.0570    8.2780   -0.6820 C   0  0  0  0  0  0  0  0  0  0  0  0
    4.2090    3.7320   -0.1940 N   0  0  0  0  0  0  0  0  0  0  0  0
    3.0010    3.3050   -0.7690 C   0  0  0  0  0  0  0  0  0  0  0  0
    2.5740    3.8670   -1.9780 C   0  0  0  0  0  0  0  0  0  0  0  0
    1.3950    3.4340   -2.5680 C   0  0  0  0  0  0  0  0  0  0  0  0
    0.6090    2.4530   -1.9590 C   0  0  0  0  0  0  0  0  0  0  0  0
   -0.9270    1.8950   -2.7290 S   0  0  0  0  0  0  0  0  0  0  0  0
   -0.7400    1.8450   -4.1310 O   0  0  0  0  0  0  0  0  0  0  0  0
   -1.3470    0.7020   -2.0950 O   0  0  0  0  0  0  0  0  0  0  0  0
   -2.0070    3.0930   -2.3750 N   0  0  0  0  0  0  0  0  0  0  0  0
   -3.3300    2.9160   -2.6060 C   0  0  0  0  0  0  0  0  0  0  0  0
   -3.6900    1.9930   -3.3140 O   0  0  0  0  0  0  0  0  0  0  0  0
   -4.2580    3.8470   -1.9690 C   0  0  0  0  0  0  0  0  0  0  0  0
   -5.4730    3.3770   -1.4440 C   0  0  0  0  0  0  0  0  0  0  0  0
   -6.3560    4.2410   -0.8120 C   0  0  0  0  0  0  0  0  0  0  0  0
   -6.0460    5.6000   -0.7050 C   0  0  0  0  0  0  0  0  0  0  0  0
   -6.9630    6.4400   -0.0650 N   0  0  0  0  0  0  0  0  0  0  0  0
   -7.1030    6.2280    1.3950 C   0  0  0  0  0  0  0  0  0  0  0  0
   -8.4910    6.7900    1.8020 C   0  0  0  0  0  0  0  0  0  0  0  0
   -8.5610    8.2440    1.4380 N   0  3  0  0  0  0  0  0  0  0  0  0
   -9.8810    8.7400    1.8400 C   0  0  0  0  0  0  0  0  0  0  0  0
   -9.8030   10.2430    1.6440 C   0  0  0  0  0  0  0  0  0  0  0  0
  -10.4380   10.8570    0.6140 C   0  0  0  0  0  0  0  0  0  0  0  0
  -11.2610   10.1270   -0.3430 C   0  0  0  0  0  0  0  0  0  0  0  0
  -12.4550    9.5190    0.0680 C   0  0  0  0  0  0  0  0  0  0  0  0
  -13.2220    8.7850   -0.8290 C   0  0  0  0  0  0  0  0  0  0  0  0
  -12.8080    8.6590   -2.1560 C   0  0  0  0  0  0  0  0  0  0  0  0
  -13.7510    7.7270   -3.2710 Cl  0  0  0  0  0  0  0  0  0  0  0  0
  -11.6360    9.2840   -2.5850 C   0  0  0  0  0  0  0  0  0  0  0  0
  -10.8730   10.0170   -1.6840 C   0  0  0  0  0  0  0  0  0  0  0  0
  -10.4070   12.3650    0.3920 C   0  0  0  0  0  0  0  0  0  0  0  0
   -9.2740   13.0130    1.2150 C   0  0  0  0  0  0  0  0  0  0  0  0
   -9.3080   12.4890    2.6650 C   0  0  0  0  0  0  0  0  0  0  0  0
  -10.6510   12.7410    3.3820 C   0  0  0  0  0  0  0  0  0  0  0  0
   -8.2340   13.2560    3.4580 C   0  0  0  0  0  0  0  0  0  0  0  0
   -8.9490   10.9860    2.6720 C   0  0  0  0  0  0  0  0  0  0  0  0
   -8.4550    8.3560   -0.0600 C   0  0  0  0  0  0  0  0  0  0  0  0
   -7.0570    7.8530   -0.5010 C   0  0  0  0  0  0  0  0  0  0  0  0
   -4.8470    6.0900   -1.2370 C   0  0  0  0  0  0  0  0  0  0  0  0
   -3.9640    5.2190   -1.8630 C   0  0  0  0  0  0  0  0  0  0  0  0
    1.0400    1.9070   -0.7460 C   0  0  0  0  0  0  0  0  0  0  0  0
    2.2180    2.3320   -0.1250 C   0  0  0  0  0  0  0  0  0  0  0  0
    2.6940    1.6080    1.4620 S   0  0  0  0  0  0  0  0  0  0  0  0
    4.1220    1.6310    1.5750 O   0  0  0  0  0  0  0  0  0  0  0  0
    2.0990    0.3180    1.5560 O   0  0  0  0  0  0  0  0  0  0  0  0
    1.9080    2.7930    2.7150 C   0  0  0  0  0  0  0  0  0  0  0  0
    0.5920    3.0350    2.4830 F   0  0  0  0  0  0  0  0  0  0  0  0
    1.9600    2.3730    3.9990 F   0  0  0  0  0  0  0  0  0  0  0  0
    2.4730    4.0230    2.7340 F   0  0  0  0  0  0  0  0  0  0  0  0
    9.0430    0.1280   -1.2970 H   0  0  0  0  0  0  0  0  0  0  0  0
    8.4820    1.0450   -2.7150 H   0  0  0  0  0  0  0  0  0  0  0  0
    7.3290    0.5860   -1.4390 H   0  0  0  0  0  0  0  0  0  0  0  0
    8.5470    2.0390    0.0680 H   0  0  0  0  0  0  0  0  0  0  0  0
   10.2260    2.3530   -2.3170 H   0  0  0  0  0  0  0  0  0  0  0  0
   10.0820    3.7040   -1.1670 H   0  0  0  0  0  0  0  0  0  0  0  0
   10.6920    2.1580    0.7150 H   0  0  0  0  0  0  0  0  0  0  0  0
   10.8550    0.8180   -0.4460 H   0  0  0  0  0  0  0  0  0  0  0  0
   12.5680    2.1410   -1.7040 H   0  0  0  0  0  0  0  0  0  0  0  0
   12.4300    3.4430   -0.4980 H   0  0  0  0  0  0  0  0  0  0  0  0
   13.1880    1.8980    1.2740 H   0  0  0  0  0  0  0  0  0  0  0  0
   13.2940    0.5750    0.0870 H   0  0  0  0  0  0  0  0  0  0  0  0
   14.9070    3.1640    0.0420 H   0  0  0  0  0  0  0  0  0  0  0  0
   14.9910    1.8800   -1.1870 H   0  0  0  0  0  0  0  0  0  0  0  0
   15.7270    0.2720    0.5620 H   0  0  0  0  0  0  0  0  0  0  0  0
   15.6760    1.5780    1.7700 H   0  0  0  0  0  0  0  0  0  0  0  0
   17.3820    2.8350    0.5030 H   0  0  0  0  0  0  0  0  0  0  0  0
   17.4160    1.5570   -0.7360 H   0  0  0  0  0  0  0  0  0  0  0  0
   18.2160   -0.0700    0.9800 H   0  0  0  0  0  0  0  0  0  0  0  0
   18.2090    1.2250    2.2000 H   0  0  0  0  0  0  0  0  0  0  0  0
   19.5900    2.1380   -0.1450 H   0  0  0  0  0  0  0  0  0  0  0  0
   20.1350   -0.8560    1.8290 H   0  0  0  0  0  0  0  0  0  0  0  0
   22.3330   -1.5100    2.7500 H   0  0  0  0  0  0  0  0  0  0  0  0
   24.2630    0.0480    2.6210 H   0  0  0  0  0  0  0  0  0  0  0  0
   25.0320    4.9140    0.4690 H   0  0  0  0  0  0  0  0  0  0  0  0
   22.2450    6.1150    1.0010 H   0  0  0  0  0  0  0  0  0  0  0  0
   23.5910    6.0440    2.1630 H   0  0  0  0  0  0  0  0  0  0  0  0
   24.9990    7.4170    0.5910 H   0  0  0  0  0  0  0  0  0  0  0  0
   23.5180    8.2890    1.0540 H   0  0  0  0  0  0  0  0  0  0  0  0
   23.3010    6.4630   -2.6900 H   0  0  0  0  0  0  0  0  0  0  0  0
    8.1330    4.1950   -1.3250 H   0  0  0  0  0  0  0  0  0  0  0  0
    7.4230    3.0130   -2.4510 H   0  0  0  0  0  0  0  0  0  0  0  0
    6.7200    3.3620    0.5120 H   0  0  0  0  0  0  0  0  0  0  0  0
    6.0900    2.0560   -0.5200 H   0  0  0  0  0  0  0  0  0  0  0  0
    5.2540    3.8660   -2.1100 H   0  0  0  0  0  0  0  0  0  0  0  0
    6.1720    5.7030    0.0840 H   0  0  0  0  0  0  0  0  0  0  0  0
    4.7130    6.0940   -0.8580 H   0  0  0  0  0  0  0  0  0  0  0  0
    8.8990    7.4080   -3.4000 H   0  0  0  0  0  0  0  0  0  0  0  0
   10.0980    9.4620   -2.7540 H   0  0  0  0  0  0  0  0  0  0  0  0
    9.3650   10.7610   -0.7840 H   0  0  0  0  0  0  0  0  0  0  0  0
    7.4130   10.0100    0.5300 H   0  0  0  0  0  0  0  0  0  0  0  0
    6.2010    7.9580   -0.1070 H   0  0  0  0  0  0  0  0  0  0  0  0
    4.2800    3.8340    0.8080 H   0  0  0  0  0  0  0  0  0  0  0  0
    3.1630    4.6380   -2.4520 H   0  0  0  0  0  0  0  0  0  0  0  0
    1.0810    3.8610   -3.5090 H   0  0  0  0  0  0  0  0  0  0  0  0
   -1.6790    3.9640   -1.9830 H   0  0  0  0  0  0  0  0  0  0  0  0
   -5.7230    2.3300   -1.5330 H   0  0  0  0  0  0  0  0  0  0  0  0
   -7.2820    3.8640   -0.4030 H   0  0  0  0  0  0  0  0  0  0  0  0
   -7.0470    5.1640    1.6260 H   0  0  0  0  0  0  0  0  0  0  0  0
   -6.3130    6.7580    1.9280 H   0  0  0  0  0  0  0  0  0  0  0  0
   -8.6290    6.6760    2.8770 H   0  0  0  0  0  0  0  0  0  0  0  0
   -9.2740    6.2440    1.2750 H   0  0  0  0  0  0  0  0  0  0  0  0
   -7.8240    8.7680    1.8880 H   0  0  0  0  0  0  0  0  0  0  0  0
  -10.6610    8.3100    1.2120 H   0  0  0  0  0  0  0  0  0  0  0  0
  -10.0810    8.4980    2.8840 H   0  0  0  0  0  0  0  0  0  0  0  0
  -12.7820    9.6220    1.0920 H   0  0  0  0  0  0  0  0  0  0  0  0
  -14.1360    8.3130   -0.5000 H   0  0  0  0  0  0  0  0  0  0  0  0
  -11.3230    9.1980   -3.6150 H   0  0  0  0  0  0  0  0  0  0  0  0
   -9.9720   10.5070   -2.0210 H   0  0  0  0  0  0  0  0  0  0  0  0
  -10.2420   12.5680   -0.6660 H   0  0  0  0  0  0  0  0  0  0  0  0
  -11.3620   12.7920    0.6990 H   0  0  0  0  0  0  0  0  0  0  0  0
   -9.4050   14.0950    1.2190 H   0  0  0  0  0  0  0  0  0  0  0  0
   -8.3130   12.7650    0.7640 H   0  0  0  0  0  0  0  0  0  0  0  0
  -10.8790   13.8070    3.3620 H   0  0  0  0  0  0  0  0  0  0  0  0
  -10.5800   12.4040    4.4160 H   0  0  0  0  0  0  0  0  0  0  0  0
  -11.4430   12.1900    2.8740 H   0  0  0  0  0  0  0  0  0  0  0  0
   -8.4750   14.3190    3.4610 H   0  0  0  0  0  0  0  0  0  0  0  0
   -7.2610   13.1050    2.9910 H   0  0  0  0  0  0  0  0  0  0  0  0
   -8.2060   12.8870    4.4830 H   0  0  0  0  0  0  0  0  0  0  0  0
   -9.1370   10.5740    3.6640 H   0  0  0  0  0  0  0  0  0  0  0  0
   -7.8950   10.8650    2.4220 H   0  0  0  0  0  0  0  0  0  0  0  0
   -9.2280    7.7470   -0.5280 H   0  0  0  0  0  0  0  0  0  0  0  0
   -8.5810    9.3960   -0.3590 H   0  0  0  0  0  0  0  0  0  0  0  0
   -6.2760    8.4470   -0.0260 H   0  0  0  0  0  0  0  0  0  0  0  0
   -6.9570    7.9210   -1.5840 H   0  0  0  0  0  0  0  0  0  0  0  0
   -4.6100    7.1410   -1.1610 H   0  0  0  0  0  0  0  0  0  0  0  0
   -3.0400    5.6000   -2.2730 H   0  0  0  0  0  0  0  0  0  0  0  0
    0.4470    1.1360   -0.2760 H   0  0  0  0  0  0  0  0  0  0  0  0
  1  2  1  0  0  0  0
  1 90  1  0  0  0  0
  1 91  1  0  0  0  0
  1 92  1  0  0  0  0
  2  3  1  0  0  0  0
  2 31  1  0  0  0  0
  2 93  1  0  0  0  0
  3  4  1  0  0  0  0
  3 94  1  0  0  0  0
  3 95  1  0  0  0  0
  4  5  1  0  0  0  0
  4 96  1  0  0  0  0
  4 97  1  0  0  0  0
  5  6  1  0  0  0  0
  5 98  1  0  0  0  0
  5 99  1  0  0  0  0
  6  7  1  0  0  0  0
  6100  1  0  0  0  0
  6101  1  0  0  0  0
  7  8  1  0  0  0  0
  7102  1  0  0  0  0
  7103  1  0  0  0  0
  8  9  1  0  0  0  0
  8104  1  0  0  0  0
  8105  1  0  0  0  0
  9 10  1  0  0  0  0
  9106  1  0  0  0  0
  9107  1  0  0  0  0
 10 11  1  0  0  0  0
 10108  1  0  0  0  0
 10109  1  0  0  0  0
 11 12  1  0  0  0  0
 11110  1  0  0  0  0
 12 13  1  0  0  0  0
 12 17  2  0  0  0  0
 13 14  2  0  0  0  0
 13111  1  0  0  0  0
 14 15  1  0  0  0  0
 14112  1  0  0  0  0
 15 16  2  0  0  0  0
 15113  1  0  0  0  0
 16 17  1  0  0  0  0
 16 29  1  0  0  0  0
 17 18  1  0  0  0  0
 18 19  2  0  0  0  0
 18 20  1  0  0  0  0
 20 21  1  0  0  0  0
 20 29  1  0  0  0  0
 21 22  1  0  0  0  0
 21 27  1  0  0  0  0
 21114  1  0  0  0  0
 22 23  1  0  0  0  0
 22115  1  0  0  0  0
 22116  1  0  0  0  0
 23 24  1  0  0  0  0
 23117  1  0  0  0  0
 23118  1  0  0  0  0
 24 25  2  0  0  0  0
 24 26  1  0  0  0  0
 26 27  1  0  0  0  0
 26119  1  0  0  0  0
 27 28  2  0  0  0  0
 29 30  2  0  0  0  0
 31 32  1  0  0  0  0
 31120  1  0  0  0  0
 31121  1  0  0  0  0
 32 33  1  0  0  0  0
 32122  1  0  0  0  0
 32123  1  0  0  0  0
 33 34  1  0  0  0  0
 33 42  1  0  0  0  0
 33124  1  0  0  0  0
 34 35  1  0  0  0  0
 34125  1  0  0  0  0
 34126  1  0  0  0  0
 35 36  1  0  0  0  0
 36 37  1  0  0  0  0
 36 41  2  0  0  0  0
 37 38  2  0  0  0  0
 37127  1  0  0  0  0
 38 39  1  0  0  0  0
 38128  1  0  0  0  0
 39 40  2  0  0  0  0
 39129  1  0  0  0  0
 40 41  1  0  0  0  0
 40130  1  0  0  0  0
 41131  1  0  0  0  0
 42 43  1  0  0  0  0
 42132  1  0  0  0  0
 43 44  1  0  0  0  0
 43 82  2  0  0  0  0
 44 45  2  0  0  0  0
 44133  1  0  0  0  0
 45 46  1  0  0  0  0
 45134  1  0  0  0  0
 46 47  1  0  0  0  0
 46 81  2  0  0  0  0
 47 48  2  0  0  0  0
 47 49  2  0  0  0  0
 47 50  1  0  0  0  0
 50 51  1  0  0  0  0
 50135  1  0  0  0  0
 51 52  2  0  0  0  0
 51 53  1  0  0  0  0
 53 54  1  0  0  0  0
 53 80  2  0  0  0  0
 54 55  2  0  0  0  0
 54136  1  0  0  0  0
 55 56  1  0  0  0  0
 55137  1  0  0  0  0
 56 57  1  0  0  0  0
 56 79  2  0  0  0  0
 57 58  1  0  0  0  0
 57 78  1  0  0  0  0
 58 59  1  0  0  0  0
 58138  1  0  0  0  0
 58139  1  0  0  0  0
 59 60  1  0  0  0  0
 59140  1  0  0  0  0
 59141  1  0  0  0  0
 60 61  1  0  0  0  0
 60 77  1  0  0  0  0
 60142  1  0  0  0  0
 61 62  1  0  0  0  0
 61143  1  0  0  0  0
 61144  1  0  0  0  0
 62 63  2  0  0  0  0
 62 76  1  0  0  0  0
 63 64  1  0  0  0  0
 63 71  1  0  0  0  0
 64 65  1  0  0  0  0
 64 70  2  0  0  0  0
 65 66  2  0  0  0  0
 65145  1  0  0  0  0
 66 67  1  0  0  0  0
 66146  1  0  0  0  0
 67 68  1  0  0  0  0
 67 69  2  0  0  0  0
 69 70  1  0  0  0  0
 69147  1  0  0  0  0
 70148  1  0  0  0  0
 71 72  1  0  0  0  0
 71149  1  0  0  0  0
 71150  1  0  0  0  0
 72 73  1  0  0  0  0
 72151  1  0  0  0  0
 72152  1  0  0  0  0
 73 74  1  0  0  0  0
 73 75  1  0  0  0  0
 73 76  1  0  0  0  0
 74153  1  0  0  0  0
 74154  1  0  0  0  0
 74155  1  0  0  0  0
 75156  1  0  0  0  0
 75157  1  0  0  0  0
 75158  1  0  0  0  0
 76159  1  0  0  0  0
 76160  1  0  0  0  0
 77 78  1  0  0  0  0
 77161  1  0  0  0  0
 77162  1  0  0  0  0
 78163  1  0  0  0  0
 78164  1  0  0  0  0
 79 80  1  0  0  0  0
 79165  1  0  0  0  0
 80166  1  0  0  0  0
 81 82  1  0  0  0  0
 81167  1  0  0  0  0
 82 83  1  0  0  0  0
 83 84  2  0  0  0  0
 83 85  2  0  0  0  0
 83 86  1  0  0  0  0
 86 87  1  0  0  0  0
 86 88  1  0  0  0  0
 86 89  1  0  0  0  0
M  CHG  1   2   1
M  CHG  1  60   1
M  END
>  <Compound ID>
668

>  <Uniprot>
Q07817

>  <Target>
BCL-xL

>  <E3 ligase>
CRBN

>  <IC50 (nM, Cellular activities)>
>2000

>  <Assay (Cellular activities, IC50)>
Inhibit viability of MOLT-4 cells

>  <Article DOI>
10.1016/j.ejmech.2020.112186

>  <Molecular Weight>
1302.0179

>  <Exact Mass>
1300.4539

>  <XLogP3>
12.9

>  <Heavy Atom Count>
89

>  <Ring Count>
9

>  <Hydrogen Bond Acceptor Count>
15

>  <Hydrogen Bond Donor Count>
4

>  <Rotatable Bond Count>
27

>  <Topological Polar Surface Area>
214.71001

>  <Molecular Formula>
C65H76ClF3N8O9S3

>  <InChI>
InChI=1S/C65H76ClF3N8O9S3/c1-64(2)32-30-52(44-18-22-47(66)23-19-44)46(41-64)42-75-36-38-76(39-37-75)49-24-20-45(21-25-49)60(79)73-89(85,86)51-26-27-54(57(40-51)88(83,84)65(67,68)69)71-48(43-87-50-14-9-8-10-15-50)31-35-74(3)34-12-7-5-4-6-11-33-70-55-17-13-16-53-59(55)63(82)77(62(53)81)56-28-29-58(78)72-61(56)80/h8-10,13-27,40,48,56,70-71H,4-7,11-12,28-39,41-43H2,1-3H3,(H,73,79)(H,72,78,80)/t48-,56?/m1/s1

>  <InChI Key>
SUNRURYBVKWHBR-YJUSKGKKSA-N

$$$$
669
  MOE2018           3D

163171  0  0  1  0  0  0  0  0999 V2000
    8.9750    0.4880   -0.7940 C   0  0  0  0  0  0  0  0  0  0  0  0
    9.1660    1.7690   -0.0550 N   0  3  1  0  0  0  0  0  0  0  0  0
   10.5130    2.3130   -0.4010 C   0  0  0  0  0  0  0  0  0  0  0  0
   11.5680    1.6030    0.4690 C   0  0  0  0  0  0  0  0  0  0  0  0
   12.8060    2.0750   -0.0290 O   0  0  0  0  0  0  0  0  0  0  0  0
   13.9250    1.5200    0.6590 C   0  0  0  0  0  0  0  0  0  0  0  0
   15.2250    2.0200    0.0340 C   0  0  0  0  0  0  0  0  0  0  0  0
   16.2990    1.2970    0.6170 O   0  0  0  0  0  0  0  0  0  0  0  0
   17.5650    1.6630    0.0830 C   0  0  0  0  0  0  0  0  0  0  0  0
   18.6480    0.8020    0.7380 C   0  0  0  0  0  0  0  0  0  0  0  0
   19.9270    1.2180    0.1400 N   0  0  0  0  0  0  0  0  0  0  0  0
   21.1110    0.5480    0.4380 C   0  0  0  0  0  0  0  0  0  0  0  0
   21.1410   -0.8300    0.7060 C   0  0  0  0  0  0  0  0  0  0  0  0
   22.3550   -1.4620    0.9880 C   0  0  0  0  0  0  0  0  0  0  0  0
   23.5500   -0.7360    1.0040 C   0  0  0  0  0  0  0  0  0  0  0  0
   23.5060    0.6310    0.7310 C   0  0  0  0  0  0  0  0  0  0  0  0
   22.3120    1.2670    0.4550 C   0  0  0  0  0  0  0  0  0  0  0  0
   22.5900    2.6600    0.2410 C   0  0  0  0  0  0  0  0  0  0  0  0
   21.8190    3.5890    0.0240 O   0  0  0  0  0  0  0  0  0  0  0  0
   23.9600    2.8460    0.3720 N   0  0  0  0  0  0  0  0  0  0  0  0
   24.7220    4.0780    0.1210 C   0  0  2  0  0  0  0  0  0  0  0  0
   24.3520    5.1030    1.2240 C   0  0  0  0  0  0  0  0  0  0  0  0
   25.0910    6.4180    0.8840 C   0  0  0  0  0  0  0  0  0  0  0  0
   24.5980    6.8970   -0.4700 C   0  0  0  0  0  0  0  0  0  0  0  0
   24.4330    8.0580   -0.7430 O   0  0  0  0  0  0  0  0  0  0  0  0
   24.3390    5.9970   -1.4530 N   0  0  0  0  0  0  0  0  0  0  0  0
   24.3790    4.6490   -1.2650 C   0  0  0  0  0  0  0  0  0  0  0  0
   24.1820    3.9770   -2.2520 O   0  0  0  0  0  0  0  0  0  0  0  0
   24.5450    1.6310    0.6780 C   0  0  0  0  0  0  0  0  0  0  0  0
   25.7450    1.5200    0.8710 O   0  0  0  0  0  0  0  0  0  0  0  0
    8.1710    2.7470   -0.5440 C   0  0  0  0  0  0  0  0  0  0  0  0
    6.9030    2.5110    0.2940 C   0  0  0  0  0  0  0  0  0  0  0  0
    5.7810    3.4260   -0.2350 C   0  0  2  0  0  0  0  0  0  0  0  0
    5.9650    4.9240    0.0750 C   0  0  0  0  0  0  0  0  0  0  0  0
    7.0410    5.5940   -1.2440 S   0  0  0  0  0  0  0  0  0  0  0  0
    7.3540    7.2700   -0.8400 C   0  0  0  0  0  0  0  0  0  0  0  0
    8.2130    8.0010   -1.6680 C   0  0  0  0  0  0  0  0  0  0  0  0
    8.5050    9.3290   -1.3830 C   0  0  0  0  0  0  0  0  0  0  0  0
    7.9410    9.9470   -0.2700 C   0  0  0  0  0  0  0  0  0  0  0  0
    7.0800    9.2300    0.5550 C   0  0  0  0  0  0  0  0  0  0  0  0
    6.7830    7.9010    0.2760 C   0  0  0  0  0  0  0  0  0  0  0  0
    4.5970    2.9970    0.5040 N   0  0  0  0  0  0  0  0  0  0  0  0
    3.3680    2.7940   -0.1480 C   0  0  0  0  0  0  0  0  0  0  0  0
    3.0310    3.5600   -1.2720 C   0  0  0  0  0  0  0  0  0  0  0  0
    1.8270    3.3440   -1.9270 C   0  0  0  0  0  0  0  0  0  0  0  0
    0.9300    2.3740   -1.4730 C   0  0  0  0  0  0  0  0  0  0  0  0
   -0.6360    2.0790   -2.3250 S   0  0  0  0  0  0  0  0  0  0  0  0
   -0.5530    2.5940   -3.6410 O   0  0  0  0  0  0  0  0  0  0  0  0
   -0.9650    0.7090   -2.1920 O   0  0  0  0  0  0  0  0  0  0  0  0
   -1.7260    2.9840   -1.4760 N   0  0  0  0  0  0  0  0  0  0  0  0
   -3.0310    3.0410   -1.8420 C   0  0  0  0  0  0  0  0  0  0  0  0
   -3.4260    2.2380   -2.6700 O   0  0  0  0  0  0  0  0  0  0  0  0
   -3.9120    4.0410   -1.2240 C   0  0  0  0  0  0  0  0  0  0  0  0
   -5.2730    4.0700   -1.5740 C   0  0  0  0  0  0  0  0  0  0  0  0
   -6.1400    4.9980   -1.0160 C   0  0  0  0  0  0  0  0  0  0  0  0
   -5.6650    5.9370   -0.0950 C   0  0  0  0  0  0  0  0  0  0  0  0
   -6.5660    6.8740    0.4420 N   0  0  0  0  0  0  0  0  0  0  0  0
   -7.2970    7.7150   -0.5440 C   0  0  0  0  0  0  0  0  0  0  0  0
   -8.5980    8.1970    0.1450 C   0  0  0  0  0  0  0  0  0  0  0  0
   -8.2300    8.9860    1.3680 N   0  3  0  0  0  0  0  0  0  0  0  0
   -9.4660    9.4790    1.9790 C   0  0  0  0  0  0  0  0  0  0  0  0
   -9.8480   10.6550    1.1010 C   0  0  0  0  0  0  0  0  0  0  0  0
  -10.8560   10.5790    0.1940 C   0  0  0  0  0  0  0  0  0  0  0  0
  -11.6620    9.3760    0.0080 C   0  0  0  0  0  0  0  0  0  0  0  0
  -11.6520    8.6920   -1.2150 C   0  0  0  0  0  0  0  0  0  0  0  0
  -12.3940    7.5290   -1.3840 C   0  0  0  0  0  0  0  0  0  0  0  0
  -13.1690    7.0390   -0.3320 C   0  0  0  0  0  0  0  0  0  0  0  0
  -14.0800    5.5800   -0.5350 Cl  0  0  0  0  0  0  0  0  0  0  0  0
  -13.2120    7.7260    0.8820 C   0  0  0  0  0  0  0  0  0  0  0  0
  -12.4680    8.8880    1.0460 C   0  0  0  0  0  0  0  0  0  0  0  0
  -11.2240   11.7270   -0.7400 C   0  0  0  0  0  0  0  0  0  0  0  0
  -10.6290   13.0560   -0.2340 C   0  0  0  0  0  0  0  0  0  0  0  0
   -9.1440   12.8670    0.1360 C   0  0  0  0  0  0  0  0  0  0  0  0
   -8.2750   12.3480   -1.0290 C   0  0  0  0  0  0  0  0  0  0  0  0
   -8.5860   14.2480    0.5250 C   0  0  0  0  0  0  0  0  0  0  0  0
   -9.0490   11.9330    1.3620 C   0  0  0  0  0  0  0  0  0  0  0  0
   -7.5630    8.0570    2.3340 C   0  0  0  0  0  0  0  0  0  0  0  0
   -6.2290    7.5630    1.7140 C   0  0  0  0  0  0  0  0  0  0  0  0
   -4.3140    5.9190    0.2770 C   0  0  0  0  0  0  0  0  0  0  0  0
   -3.4520    4.9830   -0.2800 C   0  0  0  0  0  0  0  0  0  0  0  0
    1.2730    1.6190   -0.3470 C   0  0  0  0  0  0  0  0  0  0  0  0
    2.4710    1.8290    0.3420 C   0  0  0  0  0  0  0  0  0  0  0  0
    2.8320    0.8550    1.8210 S   0  0  0  0  0  0  0  0  0  0  0  0
    4.2470    0.6510    1.9080 O   0  0  0  0  0  0  0  0  0  0  0  0
    2.0460   -0.3310    1.7760 O   0  0  0  0  0  0  0  0  0  0  0  0
    2.2370    1.9880    3.2210 C   0  0  0  0  0  0  0  0  0  0  0  0
    2.1680    1.3960    4.4350 F   0  0  0  0  0  0  0  0  0  0  0  0
    3.0180    3.0770    3.4150 F   0  0  0  0  0  0  0  0  0  0  0  0
    0.9950    2.5000    3.0150 F   0  0  0  0  0  0  0  0  0  0  0  0
    7.9960    0.0730   -0.5550 H   0  0  0  0  0  0  0  0  0  0  0  0
    9.7510   -0.2200   -0.5010 H   0  0  0  0  0  0  0  0  0  0  0  0
    9.0390    0.6740   -1.8660 H   0  0  0  0  0  0  0  0  0  0  0  0
    9.0710    1.6120    0.9380 H   0  0  0  0  0  0  0  0  0  0  0  0
   10.7230    2.1310   -1.4550 H   0  0  0  0  0  0  0  0  0  0  0  0
   10.5370    3.3850   -0.2060 H   0  0  0  0  0  0  0  0  0  0  0  0
   11.4950    0.5210    0.3590 H   0  0  0  0  0  0  0  0  0  0  0  0
   11.4470    1.8710    1.5190 H   0  0  0  0  0  0  0  0  0  0  0  0
   13.8900    1.8200    1.7060 H   0  0  0  0  0  0  0  0  0  0  0  0
   13.8870    0.4330    0.5910 H   0  0  0  0  0  0  0  0  0  0  0  0
   15.3450    3.0850    0.2330 H   0  0  0  0  0  0  0  0  0  0  0  0
   15.2070    1.8510   -1.0430 H   0  0  0  0  0  0  0  0  0  0  0  0
   17.5690    1.4980   -0.9950 H   0  0  0  0  0  0  0  0  0  0  0  0
   17.7590    2.7150    0.2910 H   0  0  0  0  0  0  0  0  0  0  0  0
   18.4630   -0.2530    0.5370 H   0  0  0  0  0  0  0  0  0  0  0  0
   18.6630    0.9700    1.8150 H   0  0  0  0  0  0  0  0  0  0  0  0
   19.9460    2.0020   -0.4970 H   0  0  0  0  0  0  0  0  0  0  0  0
   20.2250   -1.4020    0.6940 H   0  0  0  0  0  0  0  0  0  0  0  0
   22.3700   -2.5220    1.1960 H   0  0  0  0  0  0  0  0  0  0  0  0
   24.4880   -1.2240    1.2230 H   0  0  0  0  0  0  0  0  0  0  0  0
   25.7910    3.8660    0.1420 H   0  0  0  0  0  0  0  0  0  0  0  0
   23.2750    5.2700    1.2340 H   0  0  0  0  0  0  0  0  0  0  0  0
   24.6710    4.7350    2.1990 H   0  0  0  0  0  0  0  0  0  0  0  0
   26.1650    6.2390    0.8440 H   0  0  0  0  0  0  0  0  0  0  0  0
   24.8760    7.1700    1.6430 H   0  0  0  0  0  0  0  0  0  0  0  0
   24.1040    6.3460   -2.3710 H   0  0  0  0  0  0  0  0  0  0  0  0
    8.5360    3.7640   -0.4010 H   0  0  0  0  0  0  0  0  0  0  0  0
    7.9640    2.5810   -1.6010 H   0  0  0  0  0  0  0  0  0  0  0  0
    7.1050    2.7460    1.3390 H   0  0  0  0  0  0  0  0  0  0  0  0
    6.5960    1.4680    0.2090 H   0  0  0  0  0  0  0  0  0  0  0  0
    5.7430    3.3380   -1.3210 H   0  0  0  0  0  0  0  0  0  0  0  0
    6.4370    5.0520    1.0490 H   0  0  0  0  0  0  0  0  0  0  0  0
    5.0000    5.4320    0.0690 H   0  0  0  0  0  0  0  0  0  0  0  0
    8.6520    7.5300   -2.5350 H   0  0  0  0  0  0  0  0  0  0  0  0
    9.1720    9.8840   -2.0270 H   0  0  0  0  0  0  0  0  0  0  0  0
    8.1710   10.9790   -0.0480 H   0  0  0  0  0  0  0  0  0  0  0  0
    6.6400    9.7090    1.4170 H   0  0  0  0  0  0  0  0  0  0  0  0
    6.1110    7.3530    0.9200 H   0  0  0  0  0  0  0  0  0  0  0  0
    4.6620    2.8440    1.5000 H   0  0  0  0  0  0  0  0  0  0  0  0
    3.7100    4.3200   -1.6290 H   0  0  0  0  0  0  0  0  0  0  0  0
    1.5800    3.9330   -2.7980 H   0  0  0  0  0  0  0  0  0  0  0  0
   -1.4150    3.5050   -0.6690 H   0  0  0  0  0  0  0  0  0  0  0  0
   -5.6510    3.3560   -2.2910 H   0  0  0  0  0  0  0  0  0  0  0  0
   -7.1840    4.9950   -1.2930 H   0  0  0  0  0  0  0  0  0  0  0  0
   -6.6860    8.5710   -0.8310 H   0  0  0  0  0  0  0  0  0  0  0  0
   -7.5380    7.1280   -1.4300 H   0  0  0  0  0  0  0  0  0  0  0  0
   -9.2020    7.3360    0.4320 H   0  0  0  0  0  0  0  0  0  0  0  0
   -9.1650    8.8260   -0.5410 H   0  0  0  0  0  0  0  0  0  0  0  0
   -7.6190    9.7550    1.1330 H   0  0  0  0  0  0  0  0  0  0  0  0
  -10.2410    8.7130    1.9640 H   0  0  0  0  0  0  0  0  0  0  0  0
   -9.2920    9.8000    3.0060 H   0  0  0  0  0  0  0  0  0  0  0  0
  -11.0610    9.0730   -2.0350 H   0  0  0  0  0  0  0  0  0  0  0  0
  -12.3710    7.0050   -2.3280 H   0  0  0  0  0  0  0  0  0  0  0  0
  -13.8220    7.3550    1.6920 H   0  0  0  0  0  0  0  0  0  0  0  0
  -12.5110    9.4210    1.9840 H   0  0  0  0  0  0  0  0  0  0  0  0
  -10.8340   11.5170   -1.7360 H   0  0  0  0  0  0  0  0  0  0  0  0
  -12.3090   11.8160   -0.7870 H   0  0  0  0  0  0  0  0  0  0  0  0
  -11.1810   13.3850    0.6470 H   0  0  0  0  0  0  0  0  0  0  0  0
  -10.7120   13.8090   -1.0170 H   0  0  0  0  0  0  0  0  0  0  0  0
   -8.3620   13.0260   -1.8780 H   0  0  0  0  0  0  0  0  0  0  0  0
   -8.6150   11.3550   -1.3210 H   0  0  0  0  0  0  0  0  0  0  0  0
   -7.2340   12.2970   -0.7110 H   0  0  0  0  0  0  0  0  0  0  0  0
   -8.6470   14.9190   -0.3320 H   0  0  0  0  0  0  0  0  0  0  0  0
   -7.5460   14.1460    0.8330 H   0  0  0  0  0  0  0  0  0  0  0  0
   -9.1710   14.6570    1.3490 H   0  0  0  0  0  0  0  0  0  0  0  0
   -9.4550   12.4410    2.2370 H   0  0  0  0  0  0  0  0  0  0  0  0
   -8.0050   11.6770    1.5420 H   0  0  0  0  0  0  0  0  0  0  0  0
   -7.3610    8.5830    3.2670 H   0  0  0  0  0  0  0  0  0  0  0  0
   -8.2130    7.2050    2.5310 H   0  0  0  0  0  0  0  0  0  0  0  0
   -5.7350    6.8700    2.3950 H   0  0  0  0  0  0  0  0  0  0  0  0
   -5.5720    8.4100    1.5170 H   0  0  0  0  0  0  0  0  0  0  0  0
   -3.9430    6.6330    0.9970 H   0  0  0  0  0  0  0  0  0  0  0  0
   -2.4130    4.9760    0.0140 H   0  0  0  0  0  0  0  0  0  0  0  0
    0.5940    0.8540   -0.0010 H   0  0  0  0  0  0  0  0  0  0  0  0
  1  2  1  0  0  0  0
  1 90  1  0  0  0  0
  1 91  1  0  0  0  0
  1 92  1  0  0  0  0
  2  3  1  0  0  0  0
  2 31  1  0  0  0  0
  2 93  1  0  0  0  0
  3  4  1  0  0  0  0
  3 94  1  0  0  0  0
  3 95  1  0  0  0  0
  4  5  1  0  0  0  0
  4 96  1  0  0  0  0
  4 97  1  0  0  0  0
  5  6  1  0  0  0  0
  6  7  1  0  0  0  0
  6 98  1  0  0  0  0
  6 99  1  0  0  0  0
  7  8  1  0  0  0  0
  7100  1  0  0  0  0
  7101  1  0  0  0  0
  8  9  1  0  0  0  0
  9 10  1  0  0  0  0
  9102  1  0  0  0  0
  9103  1  0  0  0  0
 10 11  1  0  0  0  0
 10104  1  0  0  0  0
 10105  1  0  0  0  0
 11 12  1  0  0  0  0
 11106  1  0  0  0  0
 12 13  1  0  0  0  0
 12 17  2  0  0  0  0
 13 14  2  0  0  0  0
 13107  1  0  0  0  0
 14 15  1  0  0  0  0
 14108  1  0  0  0  0
 15 16  2  0  0  0  0
 15109  1  0  0  0  0
 16 17  1  0  0  0  0
 16 29  1  0  0  0  0
 17 18  1  0  0  0  0
 18 19  2  0  0  0  0
 18 20  1  0  0  0  0
 20 21  1  0  0  0  0
 20 29  1  0  0  0  0
 21 22  1  0  0  0  0
 21 27  1  0  0  0  0
 21110  1  0  0  0  0
 22 23  1  0  0  0  0
 22111  1  0  0  0  0
 22112  1  0  0  0  0
 23 24  1  0  0  0  0
 23113  1  0  0  0  0
 23114  1  0  0  0  0
 24 25  2  0  0  0  0
 24 26  1  0  0  0  0
 26 27  1  0  0  0  0
 26115  1  0  0  0  0
 27 28  2  0  0  0  0
 29 30  2  0  0  0  0
 31 32  1  0  0  0  0
 31116  1  0  0  0  0
 31117  1  0  0  0  0
 32 33  1  0  0  0  0
 32118  1  0  0  0  0
 32119  1  0  0  0  0
 33 34  1  0  0  0  0
 33 42  1  0  0  0  0
 33120  1  0  0  0  0
 34 35  1  0  0  0  0
 34121  1  0  0  0  0
 34122  1  0  0  0  0
 35 36  1  0  0  0  0
 36 37  1  0  0  0  0
 36 41  2  0  0  0  0
 37 38  2  0  0  0  0
 37123  1  0  0  0  0
 38 39  1  0  0  0  0
 38124  1  0  0  0  0
 39 40  2  0  0  0  0
 39125  1  0  0  0  0
 40 41  1  0  0  0  0
 40126  1  0  0  0  0
 41127  1  0  0  0  0
 42 43  1  0  0  0  0
 42128  1  0  0  0  0
 43 44  1  0  0  0  0
 43 82  2  0  0  0  0
 44 45  2  0  0  0  0
 44129  1  0  0  0  0
 45 46  1  0  0  0  0
 45130  1  0  0  0  0
 46 47  1  0  0  0  0
 46 81  2  0  0  0  0
 47 48  2  0  0  0  0
 47 49  2  0  0  0  0
 47 50  1  0  0  0  0
 50 51  1  0  0  0  0
 50131  1  0  0  0  0
 51 52  2  0  0  0  0
 51 53  1  0  0  0  0
 53 54  1  0  0  0  0
 53 80  2  0  0  0  0
 54 55  2  0  0  0  0
 54132  1  0  0  0  0
 55 56  1  0  0  0  0
 55133  1  0  0  0  0
 56 57  1  0  0  0  0
 56 79  2  0  0  0  0
 57 58  1  0  0  0  0
 57 78  1  0  0  0  0
 58 59  1  0  0  0  0
 58134  1  0  0  0  0
 58135  1  0  0  0  0
 59 60  1  0  0  0  0
 59136  1  0  0  0  0
 59137  1  0  0  0  0
 60 61  1  0  0  0  0
 60 77  1  0  0  0  0
 60138  1  0  0  0  0
 61 62  1  0  0  0  0
 61139  1  0  0  0  0
 61140  1  0  0  0  0
 62 63  2  0  0  0  0
 62 76  1  0  0  0  0
 63 64  1  0  0  0  0
 63 71  1  0  0  0  0
 64 65  1  0  0  0  0
 64 70  2  0  0  0  0
 65 66  2  0  0  0  0
 65141  1  0  0  0  0
 66 67  1  0  0  0  0
 66142  1  0  0  0  0
 67 68  1  0  0  0  0
 67 69  2  0  0  0  0
 69 70  1  0  0  0  0
 69143  1  0  0  0  0
 70144  1  0  0  0  0
 71 72  1  0  0  0  0
 71145  1  0  0  0  0
 71146  1  0  0  0  0
 72 73  1  0  0  0  0
 72147  1  0  0  0  0
 72148  1  0  0  0  0
 73 74  1  0  0  0  0
 73 75  1  0  0  0  0
 73 76  1  0  0  0  0
 74149  1  0  0  0  0
 74150  1  0  0  0  0
 74151  1  0  0  0  0
 75152  1  0  0  0  0
 75153  1  0  0  0  0
 75154  1  0  0  0  0
 76155  1  0  0  0  0
 76156  1  0  0  0  0
 77 78  1  0  0  0  0
 77157  1  0  0  0  0
 77158  1  0  0  0  0
 78159  1  0  0  0  0
 78160  1  0  0  0  0
 79 80  1  0  0  0  0
 79161  1  0  0  0  0
 80162  1  0  0  0  0
 81 82  1  0  0  0  0
 81163  1  0  0  0  0
 82 83  1  0  0  0  0
 83 84  2  0  0  0  0
 83 85  2  0  0  0  0
 83 86  1  0  0  0  0
 86 87  1  0  0  0  0
 86 88  1  0  0  0  0
 86 89  1  0  0  0  0
M  CHG  1   2   1
M  CHG  1  60   1
M  END
>  <Compound ID>
669

>  <Uniprot>
Q07817

>  <Target>
BCL-xL

>  <E3 ligase>
CRBN

>  <IC50 (nM, Cellular activities)>
35

>  <Assay (Cellular activities, IC50)>
Inhibit viability of MOLT-4 cells

>  <Article DOI>
10.1016/j.ejmech.2020.112186

>  <Molecular Weight>
1305.962

>  <Exact Mass>
1304.4124

>  <XLogP3>
10.09

>  <Heavy Atom Count>
89

>  <Ring Count>
9

>  <Hydrogen Bond Acceptor Count>
17

>  <Hydrogen Bond Donor Count>
4

>  <Rotatable Bond Count>
27

>  <Topological Polar Surface Area>
233.17

>  <Molecular Formula>
C63H72ClF3N8O11S3

>  <InChI>
InChI=1S/C63H72ClF3N8O11S3/c1-62(2)26-24-50(42-12-16-45(64)17-13-42)44(39-62)40-73-29-31-74(32-30-73)47-18-14-43(15-19-47)58(77)71-89(83,84)49-20-21-52(55(38-49)88(81,82)63(65,66)67)69-46(41-87-48-8-5-4-6-9-48)25-28-72(3)33-35-86-37-36-85-34-27-68-53-11-7-10-51-57(53)61(80)75(60(51)79)54-22-23-56(76)70-59(54)78/h4-21,38,46,54,68-69H,22-37,39-41H2,1-3H3,(H,71,77)(H,70,76,78)/t46-,54?/m1/s1

>  <InChI Key>
KIZIUIIALLXWBQ-MFJGLPAGSA-N

$$$$
670
  MOE2018           3D

170178  0  0  1  0  0  0  0  0999 V2000
   10.6770    5.0480   -0.3310 C   0  0  0  0  0  0  0  0  0  0  0  0
    9.4890    4.5590    0.4250 N   0  3  2  0  0  0  0  0  0  0  0  0
    9.7130    3.1190    0.7400 C   0  0  0  0  0  0  0  0  0  0  0  0
   10.5380    3.0330    2.0370 C   0  0  0  0  0  0  0  0  0  0  0  0
   11.0680    1.7220    2.0190 O   0  0  0  0  0  0  0  0  0  0  0  0
   11.8650    1.4190    3.1630 C   0  0  0  0  0  0  0  0  0  0  0  0
   12.6570    0.1310    2.9250 C   0  0  0  0  0  0  0  0  0  0  0  0
   13.8930    0.4420    2.2940 O   0  0  0  0  0  0  0  0  0  0  0  0
   14.6490   -0.7210    1.9820 C   0  0  0  0  0  0  0  0  0  0  0  0
   15.9800   -0.3100    1.3590 C   0  0  0  0  0  0  0  0  0  0  0  0
   16.7230   -1.4810    1.0490 O   0  0  0  0  0  0  0  0  0  0  0  0
   18.0020   -1.1870    0.5030 C   0  0  0  0  0  0  0  0  0  0  0  0
   18.7230   -2.4970    0.1820 C   0  0  0  0  0  0  0  0  0  0  0  0
   20.0640   -2.1240   -0.2950 N   0  0  0  0  0  0  0  0  0  0  0  0
   20.9710   -3.1050   -0.6840 C   0  0  0  0  0  0  0  0  0  0  0  0
   20.5640   -4.2750   -1.3450 C   0  0  0  0  0  0  0  0  0  0  0  0
   21.5110   -5.2300   -1.7250 C   0  0  0  0  0  0  0  0  0  0  0  0
   22.8690   -5.0330   -1.4580 C   0  0  0  0  0  0  0  0  0  0  0  0
   23.2590   -3.8650   -0.8030 C   0  0  0  0  0  0  0  0  0  0  0  0
   22.3320   -2.9160   -0.4210 C   0  0  0  0  0  0  0  0  0  0  0  0
   23.0330   -1.8530    0.2440 C   0  0  0  0  0  0  0  0  0  0  0  0
   22.5930   -0.8400    0.7800 O   0  0  0  0  0  0  0  0  0  0  0  0
   24.3850   -2.1680    0.2430 N   0  0  0  0  0  0  0  0  0  0  0  0
   25.4970   -1.3260    0.7100 C   0  0  2  0  0  0  0  0  0  0  0  0
   25.3840   -1.1910    2.2510 C   0  0  0  0  0  0  0  0  0  0  0  0
   26.5090   -0.2310    2.7020 C   0  0  0  0  0  0  0  0  0  0  0  0
   26.2790    1.1120    2.0330 C   0  0  0  0  0  0  0  0  0  0  0  0
   26.5000    2.1660    2.5690 O   0  0  0  0  0  0  0  0  0  0  0  0
   25.8190    1.1630    0.7560 N   0  0  0  0  0  0  0  0  0  0  0  0
   25.4300    0.0630    0.0550 C   0  0  0  0  0  0  0  0  0  0  0  0
   25.0930    0.2640   -1.0910 O   0  0  0  0  0  0  0  0  0  0  0  0
   24.5560   -3.3880   -0.3840 C   0  0  0  0  0  0  0  0  0  0  0  0
   25.6540   -3.9090   -0.5010 O   0  0  0  0  0  0  0  0  0  0  0  0
    8.3160    4.6240   -0.4710 C   0  0  0  0  0  0  0  0  0  0  0  0
    7.7470    6.0410   -0.3250 C   0  0  0  0  0  0  0  0  0  0  0  0
    6.5470    6.1330   -1.2890 C   0  0  2  0  0  0  0  0  0  0  0  0
    6.0700    7.5940   -1.4510 C   0  0  0  0  0  0  0  0  0  0  0  0
    7.4000    8.4830   -2.3380 S   0  0  0  0  0  0  0  0  0  0  0  0
    6.9770   10.1830   -2.2880 C   0  0  0  0  0  0  0  0  0  0  0  0
    5.6960   10.6320   -1.9350 C   0  0  0  0  0  0  0  0  0  0  0  0
    5.4190   11.9940   -1.8940 C   0  0  0  0  0  0  0  0  0  0  0  0
    6.4070   12.9220   -2.2090 C   0  0  0  0  0  0  0  0  0  0  0  0
    7.6770   12.4830   -2.5720 C   0  0  0  0  0  0  0  0  0  0  0  0
    7.9610   11.1230   -2.6140 C   0  0  0  0  0  0  0  0  0  0  0  0
    5.4570    5.3250   -0.6730 N   0  0  0  0  0  0  0  0  0  0  0  0
    4.3270    5.1310   -1.4770 C   0  0  0  0  0  0  0  0  0  0  0  0
    3.2630    6.0210   -1.3070 C   0  0  0  0  0  0  0  0  0  0  0  0
    2.1380    5.9240   -2.1140 C   0  0  0  0  0  0  0  0  0  0  0  0
    2.0400    4.9230   -3.0830 C   0  0  0  0  0  0  0  0  0  0  0  0
    0.5770    4.8050   -4.1390 S   0  0  0  0  0  0  0  0  0  0  0  0
    0.9210    4.0740   -5.3010 O   0  0  0  0  0  0  0  0  0  0  0  0
    0.0440    6.1030   -4.3320 O   0  0  0  0  0  0  0  0  0  0  0  0
   -0.4950    3.9320   -3.2370 N   0  0  0  0  0  0  0  0  0  0  0  0
   -1.7640    3.7540   -3.6780 C   0  0  0  0  0  0  0  0  0  0  0  0
   -1.9700    3.8600   -4.8750 O   0  0  0  0  0  0  0  0  0  0  0  0
   -2.8240    3.4300   -2.7140 C   0  0  0  0  0  0  0  0  0  0  0  0
   -2.6040    3.4080   -1.3210 C   0  0  0  0  0  0  0  0  0  0  0  0
   -3.6380    3.1240   -0.4390 C   0  0  0  0  0  0  0  0  0  0  0  0
   -4.9200    2.8460   -0.9240 C   0  0  0  0  0  0  0  0  0  0  0  0
   -5.9510    2.5930   -0.0050 N   0  0  0  0  0  0  0  0  0  0  0  0
   -7.3640    2.7800   -0.4220 C   0  0  0  0  0  0  0  0  0  0  0  0
   -8.1730    3.0950    0.8620 C   0  0  0  0  0  0  0  0  0  0  0  0
   -8.0210    1.9600    1.8350 N   0  3  0  0  0  0  0  0  0  0  0  0
   -8.8010    2.2900    3.0220 C   0  0  0  0  0  0  0  0  0  0  0  0
  -10.1510    1.6980    2.6860 C   0  0  0  0  0  0  0  0  0  0  0  0
  -11.2020    2.4280    2.2510 C   0  0  0  0  0  0  0  0  0  0  0  0
  -11.1730    3.8740    2.0630 C   0  0  0  0  0  0  0  0  0  0  0  0
  -10.9050    4.7350    3.1350 C   0  0  0  0  0  0  0  0  0  0  0  0
  -10.8400    6.1090    2.9430 C   0  0  0  0  0  0  0  0  0  0  0  0
  -11.0560    6.6450    1.6730 C   0  0  0  0  0  0  0  0  0  0  0  0
  -10.9600    8.3570    1.4260 Cl  0  0  0  0  0  0  0  0  0  0  0  0
  -11.3520    5.8020    0.6010 C   0  0  0  0  0  0  0  0  0  0  0  0
  -11.4140    4.4280    0.7980 C   0  0  0  0  0  0  0  0  0  0  0  0
  -12.4940    1.6990    1.9270 C   0  0  0  0  0  0  0  0  0  0  0  0
  -12.0740    0.5740    0.9580 C   0  0  0  0  0  0  0  0  0  0  0  0
  -11.0490   -0.3920    1.6330 C   0  0  0  0  0  0  0  0  0  0  0  0
  -11.7790   -1.6760    2.0650 C   0  0  0  0  0  0  0  0  0  0  0  0
  -10.0090   -0.8000    0.5720 C   0  0  0  0  0  0  0  0  0  0  0  0
  -10.3260    0.2000    2.8860 C   0  0  0  0  0  0  0  0  0  0  0  0
   -6.5780    1.8490    2.2260 C   0  0  0  0  0  0  0  0  0  0  0  0
   -5.7440    1.4900    0.9680 C   0  0  0  0  0  0  0  0  0  0  0  0
   -5.1550    2.8510   -2.3050 C   0  0  0  0  0  0  0  0  0  0  0  0
   -4.1190    3.1410   -3.1810 C   0  0  0  0  0  0  0  0  0  0  0  0
    3.0970    4.0170   -3.2210 C   0  0  0  0  0  0  0  0  0  0  0  0
    4.2360    4.0840   -2.4110 C   0  0  0  0  0  0  0  0  0  0  0  0
    5.4810    2.7800   -2.5300 S   0  0  0  0  0  0  0  0  0  0  0  0
    6.7890    3.3560   -2.5720 O   0  0  0  0  0  0  0  0  0  0  0  0
    5.1510    1.9530   -3.6400 O   0  0  0  0  0  0  0  0  0  0  0  0
    5.2370    1.8230   -0.9110 C   0  0  0  0  0  0  0  0  0  0  0  0
    5.6520    0.5380   -0.9530 F   0  0  0  0  0  0  0  0  0  0  0  0
    3.9460    1.7550   -0.5010 F   0  0  0  0  0  0  0  0  0  0  0  0
    5.9050    2.3510    0.1550 F   0  0  0  0  0  0  0  0  0  0  0  0
   10.5430    6.1010   -0.5770 H   0  0  0  0  0  0  0  0  0  0  0  0
   10.7860    4.4720   -1.2500 H   0  0  0  0  0  0  0  0  0  0  0  0
   11.5710    4.9290    0.2810 H   0  0  0  0  0  0  0  0  0  0  0  0
    9.3470    5.1090    1.2600 H   0  0  0  0  0  0  0  0  0  0  0  0
    8.7550    2.6180    0.8780 H   0  0  0  0  0  0  0  0  0  0  0  0
   10.2570    2.6430   -0.0760 H   0  0  0  0  0  0  0  0  0  0  0  0
    9.9030    3.1820    2.9110 H   0  0  0  0  0  0  0  0  0  0  0  0
   11.3370    3.7740    2.0380 H   0  0  0  0  0  0  0  0  0  0  0  0
   12.5580    2.2400    3.3470 H   0  0  0  0  0  0  0  0  0  0  0  0
   11.2170    1.2890    4.0300 H   0  0  0  0  0  0  0  0  0  0  0  0
   12.0800   -0.5370    2.2850 H   0  0  0  0  0  0  0  0  0  0  0  0
   12.8500   -0.3580    3.8800 H   0  0  0  0  0  0  0  0  0  0  0  0
   14.8340   -1.2890    2.8930 H   0  0  0  0  0  0  0  0  0  0  0  0
   14.0920   -1.3380    1.2760 H   0  0  0  0  0  0  0  0  0  0  0  0
   16.5410    0.3030    2.0650 H   0  0  0  0  0  0  0  0  0  0  0  0
   15.7970    0.2600    0.4480 H   0  0  0  0  0  0  0  0  0  0  0  0
   17.8840   -0.6030   -0.4090 H   0  0  0  0  0  0  0  0  0  0  0  0
   18.5850   -0.6170    1.2260 H   0  0  0  0  0  0  0  0  0  0  0  0
   18.1850   -3.0440   -0.5930 H   0  0  0  0  0  0  0  0  0  0  0  0
   18.7990   -3.1150    1.0770 H   0  0  0  0  0  0  0  0  0  0  0  0
   20.3280   -1.1500   -0.3400 H   0  0  0  0  0  0  0  0  0  0  0  0
   19.5180   -4.4370   -1.5600 H   0  0  0  0  0  0  0  0  0  0  0  0
   21.1900   -6.1290   -2.2300 H   0  0  0  0  0  0  0  0  0  0  0  0
   23.6010   -5.7700   -1.7530 H   0  0  0  0  0  0  0  0  0  0  0  0
   26.4490   -1.7820    0.4370 H   0  0  0  0  0  0  0  0  0  0  0  0
   24.4110   -0.7810    2.5210 H   0  0  0  0  0  0  0  0  0  0  0  0
   25.5110   -2.1650    2.7230 H   0  0  0  0  0  0  0  0  0  0  0  0
   27.4780   -0.6310    2.4040 H   0  0  0  0  0  0  0  0  0  0  0  0
   26.4820   -0.1140    3.7850 H   0  0  0  0  0  0  0  0  0  0  0  0
   25.7630    2.0640    0.3030 H   0  0  0  0  0  0  0  0  0  0  0  0
    8.6170    4.4420   -1.5030 H   0  0  0  0  0  0  0  0  0  0  0  0
    7.5720    3.8850   -0.1740 H   0  0  0  0  0  0  0  0  0  0  0  0
    8.5030    6.7800   -0.5930 H   0  0  0  0  0  0  0  0  0  0  0  0
    7.4200    6.2110    0.7010 H   0  0  0  0  0  0  0  0  0  0  0  0
    6.8250    5.7690   -2.2780 H   0  0  0  0  0  0  0  0  0  0  0  0
    5.9030    8.0460   -0.4730 H   0  0  0  0  0  0  0  0  0  0  0  0
    5.1460    7.6260   -2.0290 H   0  0  0  0  0  0  0  0  0  0  0  0
    4.9220    9.9180   -1.6940 H   0  0  0  0  0  0  0  0  0  0  0  0
    4.4320   12.3330   -1.6160 H   0  0  0  0  0  0  0  0  0  0  0  0
    6.1890   13.9790   -2.1720 H   0  0  0  0  0  0  0  0  0  0  0  0
    8.4440   13.2010   -2.8220 H   0  0  0  0  0  0  0  0  0  0  0  0
    8.9480   10.7900   -2.9000 H   0  0  0  0  0  0  0  0  0  0  0  0
    5.5280    4.9440    0.2600 H   0  0  0  0  0  0  0  0  0  0  0  0
    3.3160    6.7860   -0.5460 H   0  0  0  0  0  0  0  0  0  0  0  0
    1.3300    6.6300   -1.9910 H   0  0  0  0  0  0  0  0  0  0  0  0
   -0.2050    3.5310   -2.3570 H   0  0  0  0  0  0  0  0  0  0  0  0
   -1.6170    3.6150   -0.9350 H   0  0  0  0  0  0  0  0  0  0  0  0
   -3.4520    3.1180    0.6250 H   0  0  0  0  0  0  0  0  0  0  0  0
   -7.4410    3.6080   -1.1260 H   0  0  0  0  0  0  0  0  0  0  0  0
   -7.7410    1.8700   -0.8890 H   0  0  0  0  0  0  0  0  0  0  0  0
   -9.2260    3.2190    0.6080 H   0  0  0  0  0  0  0  0  0  0  0  0
   -7.7980    4.0140    1.3130 H   0  0  0  0  0  0  0  0  0  0  0  0
   -8.3340    1.0910    1.4260 H   0  0  0  0  0  0  0  0  0  0  0  0
   -8.3780    1.8290    3.9150 H   0  0  0  0  0  0  0  0  0  0  0  0
   -8.8660    3.3690    3.1660 H   0  0  0  0  0  0  0  0  0  0  0  0
  -10.7470    4.3260    4.1220 H   0  0  0  0  0  0  0  0  0  0  0  0
  -10.6230    6.7620    3.7760 H   0  0  0  0  0  0  0  0  0  0  0  0
  -11.5330    6.2170   -0.3800 H   0  0  0  0  0  0  0  0  0  0  0  0
  -11.6500    3.7800   -0.0330 H   0  0  0  0  0  0  0  0  0  0  0  0
  -12.9380    1.2820    2.8310 H   0  0  0  0  0  0  0  0  0  0  0  0
  -13.2060    2.3720    1.4500 H   0  0  0  0  0  0  0  0  0  0  0  0
  -11.6170    1.0180    0.0740 H   0  0  0  0  0  0  0  0  0  0  0  0
  -12.9580    0.0080    0.6650 H   0  0  0  0  0  0  0  0  0  0  0  0
  -12.2920   -2.1090    1.2060 H   0  0  0  0  0  0  0  0  0  0  0  0
  -12.5070   -1.4370    2.8410 H   0  0  0  0  0  0  0  0  0  0  0  0
  -11.0550   -2.3920    2.4540 H   0  0  0  0  0  0  0  0  0  0  0  0
  -10.5200   -1.2120   -0.2980 H   0  0  0  0  0  0  0  0  0  0  0  0
   -9.3400   -1.5520    0.9900 H   0  0  0  0  0  0  0  0  0  0  0  0
   -9.4310    0.0750    0.2740 H   0  0  0  0  0  0  0  0  0  0  0  0
   -9.3500   -0.2710    3.0030 H   0  0  0  0  0  0  0  0  0  0  0  0
  -10.9270    0.0170    3.7770 H   0  0  0  0  0  0  0  0  0  0  0  0
   -6.2350    2.8000    2.6340 H   0  0  0  0  0  0  0  0  0  0  0  0
   -6.4610    1.0680    2.9780 H   0  0  0  0  0  0  0  0  0  0  0  0
   -6.0880    0.5460    0.5450 H   0  0  0  0  0  0  0  0  0  0  0  0
   -4.6880    1.4090    1.2270 H   0  0  0  0  0  0  0  0  0  0  0  0
   -6.1410    2.6300   -2.6870 H   0  0  0  0  0  0  0  0  0  0  0  0
   -4.3110    3.1450   -4.2440 H   0  0  0  0  0  0  0  0  0  0  0  0
    3.0320    3.2450   -3.9730 H   0  0  0  0  0  0  0  0  0  0  0  0
  1  2  1  0  0  0  0
  1 93  1  0  0  0  0
  1 94  1  0  0  0  0
  1 95  1  0  0  0  0
  2  3  1  0  0  0  0
  2 34  1  0  0  0  0
  2 96  1  0  0  0  0
  3  4  1  0  0  0  0
  3 97  1  0  0  0  0
  3 98  1  0  0  0  0
  4  5  1  0  0  0  0
  4 99  1  0  0  0  0
  4100  1  0  0  0  0
  5  6  1  0  0  0  0
  6  7  1  0  0  0  0
  6101  1  0  0  0  0
  6102  1  0  0  0  0
  7  8  1  0  0  0  0
  7103  1  0  0  0  0
  7104  1  0  0  0  0
  8  9  1  0  0  0  0
  9 10  1  0  0  0  0
  9105  1  0  0  0  0
  9106  1  0  0  0  0
 10 11  1  0  0  0  0
 10107  1  0  0  0  0
 10108  1  0  0  0  0
 11 12  1  0  0  0  0
 12 13  1  0  0  0  0
 12109  1  0  0  0  0
 12110  1  0  0  0  0
 13 14  1  0  0  0  0
 13111  1  0  0  0  0
 13112  1  0  0  0  0
 14 15  1  0  0  0  0
 14113  1  0  0  0  0
 15 16  1  0  0  0  0
 15 20  2  0  0  0  0
 16 17  2  0  0  0  0
 16114  1  0  0  0  0
 17 18  1  0  0  0  0
 17115  1  0  0  0  0
 18 19  2  0  0  0  0
 18116  1  0  0  0  0
 19 20  1  0  0  0  0
 19 32  1  0  0  0  0
 20 21  1  0  0  0  0
 21 22  2  0  0  0  0
 21 23  1  0  0  0  0
 23 24  1  0  0  0  0
 23 32  1  0  0  0  0
 24 25  1  0  0  0  0
 24 30  1  0  0  0  0
 24117  1  0  0  0  0
 25 26  1  0  0  0  0
 25118  1  0  0  0  0
 25119  1  0  0  0  0
 26 27  1  0  0  0  0
 26120  1  0  0  0  0
 26121  1  0  0  0  0
 27 28  2  0  0  0  0
 27 29  1  0  0  0  0
 29 30  1  0  0  0  0
 29122  1  0  0  0  0
 30 31  2  0  0  0  0
 32 33  2  0  0  0  0
 34 35  1  0  0  0  0
 34123  1  0  0  0  0
 34124  1  0  0  0  0
 35 36  1  0  0  0  0
 35125  1  0  0  0  0
 35126  1  0  0  0  0
 36 37  1  0  0  0  0
 36 45  1  0  0  0  0
 36127  1  0  0  0  0
 37 38  1  0  0  0  0
 37128  1  0  0  0  0
 37129  1  0  0  0  0
 38 39  1  0  0  0  0
 39 40  1  0  0  0  0
 39 44  2  0  0  0  0
 40 41  2  0  0  0  0
 40130  1  0  0  0  0
 41 42  1  0  0  0  0
 41131  1  0  0  0  0
 42 43  2  0  0  0  0
 42132  1  0  0  0  0
 43 44  1  0  0  0  0
 43133  1  0  0  0  0
 44134  1  0  0  0  0
 45 46  1  0  0  0  0
 45135  1  0  0  0  0
 46 47  1  0  0  0  0
 46 85  2  0  0  0  0
 47 48  2  0  0  0  0
 47136  1  0  0  0  0
 48 49  1  0  0  0  0
 48137  1  0  0  0  0
 49 50  1  0  0  0  0
 49 84  2  0  0  0  0
 50 51  2  0  0  0  0
 50 52  2  0  0  0  0
 50 53  1  0  0  0  0
 53 54  1  0  0  0  0
 53138  1  0  0  0  0
 54 55  2  0  0  0  0
 54 56  1  0  0  0  0
 56 57  1  0  0  0  0
 56 83  2  0  0  0  0
 57 58  2  0  0  0  0
 57139  1  0  0  0  0
 58 59  1  0  0  0  0
 58140  1  0  0  0  0
 59 60  1  0  0  0  0
 59 82  2  0  0  0  0
 60 61  1  0  0  0  0
 60 81  1  0  0  0  0
 61 62  1  0  0  0  0
 61141  1  0  0  0  0
 61142  1  0  0  0  0
 62 63  1  0  0  0  0
 62143  1  0  0  0  0
 62144  1  0  0  0  0
 63 64  1  0  0  0  0
 63 80  1  0  0  0  0
 63145  1  0  0  0  0
 64 65  1  0  0  0  0
 64146  1  0  0  0  0
 64147  1  0  0  0  0
 65 66  2  0  0  0  0
 65 79  1  0  0  0  0
 66 67  1  0  0  0  0
 66 74  1  0  0  0  0
 67 68  1  0  0  0  0
 67 73  2  0  0  0  0
 68 69  2  0  0  0  0
 68148  1  0  0  0  0
 69 70  1  0  0  0  0
 69149  1  0  0  0  0
 70 71  1  0  0  0  0
 70 72  2  0  0  0  0
 72 73  1  0  0  0  0
 72150  1  0  0  0  0
 73151  1  0  0  0  0
 74 75  1  0  0  0  0
 74152  1  0  0  0  0
 74153  1  0  0  0  0
 75 76  1  0  0  0  0
 75154  1  0  0  0  0
 75155  1  0  0  0  0
 76 77  1  0  0  0  0
 76 78  1  0  0  0  0
 76 79  1  0  0  0  0
 77156  1  0  0  0  0
 77157  1  0  0  0  0
 77158  1  0  0  0  0
 78159  1  0  0  0  0
 78160  1  0  0  0  0
 78161  1  0  0  0  0
 79162  1  0  0  0  0
 79163  1  0  0  0  0
 80 81  1  0  0  0  0
 80164  1  0  0  0  0
 80165  1  0  0  0  0
 81166  1  0  0  0  0
 81167  1  0  0  0  0
 82 83  1  0  0  0  0
 82168  1  0  0  0  0
 83169  1  0  0  0  0
 84 85  1  0  0  0  0
 84170  1  0  0  0  0
 85 86  1  0  0  0  0
 86 87  2  0  0  0  0
 86 88  2  0  0  0  0
 86 89  1  0  0  0  0
 89 90  1  0  0  0  0
 89 91  1  0  0  0  0
 89 92  1  0  0  0  0
M  CHG  1   2   1
M  CHG  1  63   1
M  END
>  <Compound ID>
670

>  <Uniprot>
Q07817

>  <Target>
BCL-xL

>  <E3 ligase>
CRBN

>  <IC50 (nM, Cellular activities)>
10.1/41.8/25.3

>  <Assay (Cellular activities, IC50)>
Inhibit viability of MOLT-4 cells

>  <Article DOI>
10.1016/j.ejmech.2020.112186

>  <Molecular Weight>
1350.015

>  <Exact Mass>
1348.4386

>  <XLogP3>
9.9399996

>  <Heavy Atom Count>
92

>  <Ring Count>
9

>  <Hydrogen Bond Acceptor Count>
18

>  <Hydrogen Bond Donor Count>
4

>  <Rotatable Bond Count>
30

>  <Topological Polar Surface Area>
242.39999

>  <Molecular Formula>
C65H76ClF3N8O12S3

>  <InChI>
InChI=1S/C65H76ClF3N8O12S3/c1-64(2)26-24-52(44-12-16-47(66)17-13-44)46(41-64)42-75-29-31-76(32-30-75)49-18-14-45(15-19-49)60(79)73-92(85,86)51-20-21-54(57(40-51)91(83,84)65(67,68)69)71-48(43-90-50-8-5-4-6-9-50)25-28-74(3)33-35-88-37-39-89-38-36-87-34-27-70-55-11-7-10-53-59(55)63(82)77(62(53)81)56-22-23-58(78)72-61(56)80/h4-21,40,48,56,70-71H,22-39,41-43H2,1-3H3,(H,73,79)(H,72,78,80)/t48-,56?/m1/s1

>  <InChI Key>
RTASGZOITGGVPZ-YJUSKGKKSA-N

>  <DC50 (nM)>
2.5

>  <Assay (DC50/Dmax)>
Degradation of BCL-xL in MOLT-4 cells after 16 h treatment

>  <Name>
XZ739

$$$$
671
  MOE2018           3D

177185  0  0  1  0  0  0  0  0999 V2000
    5.6330   -5.8800    0.1520 C   0  0  0  0  0  0  0  0  0  0  0  0
    5.8480   -4.4060    0.1690 N   0  3  1  0  0  0  0  0  0  0  0  0
    7.0940   -4.0930   -0.5860 C   0  0  0  0  0  0  0  0  0  0  0  0
    8.2980   -4.3490    0.3400 C   0  0  0  0  0  0  0  0  0  0  0  0
    9.4170   -3.9000   -0.4020 O   0  0  0  0  0  0  0  0  0  0  0  0
   10.6310   -3.9970    0.3380 C   0  0  0  0  0  0  0  0  0  0  0  0
   11.8070   -3.5200   -0.5100 C   0  0  0  0  0  0  0  0  0  0  0  0
   12.9750   -3.5960    0.2920 O   0  0  0  0  0  0  0  0  0  0  0  0
   14.1550   -3.2220   -0.4080 C   0  0  0  0  0  0  0  0  0  0  0  0
   15.3500   -3.3870    0.5280 C   0  0  0  0  0  0  0  0  0  0  0  0
   16.5570   -3.1680   -0.1920 O   0  0  0  0  0  0  0  0  0  0  0  0
   17.7060   -3.3810    0.6190 C   0  0  0  0  0  0  0  0  0  0  0  0
   18.9700   -3.2030   -0.2180 C   0  0  0  0  0  0  0  0  0  0  0  0
   20.0820   -3.6810    0.5280 O   0  0  0  0  0  0  0  0  0  0  0  0
   21.3050   -3.5990   -0.1910 C   0  0  0  0  0  0  0  0  0  0  0  0
   22.4150   -4.2270    0.6540 C   0  0  0  0  0  0  0  0  0  0  0  0
   23.6500   -4.1230   -0.1420 N   0  0  0  0  0  0  0  0  0  0  0  0
   24.7740   -4.8680    0.2030 C   0  0  0  0  0  0  0  0  0  0  0  0
   24.6780   -6.1990    0.6380 C   0  0  0  0  0  0  0  0  0  0  0  0
   25.8320   -6.9130    0.9710 C   0  0  0  0  0  0  0  0  0  0  0  0
   27.0920   -6.3170    0.8700 C   0  0  0  0  0  0  0  0  0  0  0  0
   27.1740   -4.9970    0.4280 C   0  0  0  0  0  0  0  0  0  0  0  0
   26.0410   -4.2810    0.0980 C   0  0  0  0  0  0  0  0  0  0  0  0
   26.4490   -2.9630   -0.3020 C   0  0  0  0  0  0  0  0  0  0  0  0
   25.7660   -2.0000   -0.6340 O   0  0  0  0  0  0  0  0  0  0  0  0
   27.8340   -2.9020   -0.2170 N   0  0  0  0  0  0  0  0  0  0  0  0
   28.7070   -1.7980   -0.6450 C   0  0  2  0  0  0  0  0  0  0  0  0
   28.4520   -0.5900    0.2920 C   0  0  0  0  0  0  0  0  0  0  0  0
   29.3210    0.5770   -0.2350 C   0  0  0  0  0  0  0  0  0  0  0  0
   28.8750    0.8960   -1.6500 C   0  0  0  0  0  0  0  0  0  0  0  0
   28.8410    2.0130   -2.0980 O   0  0  0  0  0  0  0  0  0  0  0  0
   28.5080   -0.1070   -2.4890 N   0  0  0  0  0  0  0  0  0  0  0  0
   28.4020   -1.4070   -2.1000 C   0  0  0  0  0  0  0  0  0  0  0  0
   28.1110   -2.1940   -2.9730 O   0  0  0  0  0  0  0  0  0  0  0  0
   28.3050   -4.1230    0.2270 C   0  0  0  0  0  0  0  0  0  0  0  0
   29.4940   -4.3330    0.4080 O   0  0  0  0  0  0  0  0  0  0  0  0
    4.7390   -3.7460   -0.5480 C   0  0  0  0  0  0  0  0  0  0  0  0
    3.5830   -3.6590    0.4640 C   0  0  0  0  0  0  0  0  0  0  0  0
    2.5170   -2.6970   -0.1010 C   0  0  2  0  0  0  0  0  0  0  0  0
    2.6590   -1.2350    0.3720 C   0  0  0  0  0  0  0  0  0  0  0  0
    4.0800   -0.4990   -0.5240 S   0  0  0  0  0  0  0  0  0  0  0  0
    5.5500   -0.7020    0.4090 C   0  0  0  0  0  0  0  0  0  0  0  0
    5.5510   -0.9800    1.7840 C   0  0  0  0  0  0  0  0  0  0  0  0
    6.7530   -1.1760    2.4560 C   0  0  0  0  0  0  0  0  0  0  0  0
    7.9630   -1.0850    1.7740 C   0  0  0  0  0  0  0  0  0  0  0  0
    7.9690   -0.7900    0.4140 C   0  0  0  0  0  0  0  0  0  0  0  0
    6.7720   -0.5930   -0.2640 C   0  0  0  0  0  0  0  0  0  0  0  0
    1.2510   -3.1760    0.4570 N   0  0  0  0  0  0  0  0  0  0  0  0
    0.1400   -3.3830   -0.3790 C   0  0  0  0  0  0  0  0  0  0  0  0
   -0.0900   -2.5150   -1.4530 C   0  0  0  0  0  0  0  0  0  0  0  0
   -1.1690   -2.7230   -2.2990 C   0  0  0  0  0  0  0  0  0  0  0  0
   -2.0490   -3.7860   -2.0880 C   0  0  0  0  0  0  0  0  0  0  0  0
   -3.4390   -4.0610   -3.2110 S   0  0  0  0  0  0  0  0  0  0  0  0
   -3.0570   -3.6380   -4.5070 O   0  0  0  0  0  0  0  0  0  0  0  0
   -3.8770   -5.4000   -3.0770 O   0  0  0  0  0  0  0  0  0  0  0  0
   -4.6240   -3.0610   -2.6430 N   0  0  0  0  0  0  0  0  0  0  0  0
   -5.8660   -3.0930   -3.1870 C   0  0  0  0  0  0  0  0  0  0  0  0
   -6.0190   -3.6640   -4.2520 O   0  0  0  0  0  0  0  0  0  0  0  0
   -6.9650   -2.4440   -2.4670 C   0  0  0  0  0  0  0  0  0  0  0  0
   -6.7430   -1.4230   -1.5230 C   0  0  0  0  0  0  0  0  0  0  0  0
   -7.8020   -0.8400   -0.8410 C   0  0  0  0  0  0  0  0  0  0  0  0
   -9.1150   -1.2530   -1.0970 C   0  0  0  0  0  0  0  0  0  0  0  0
  -10.1640   -0.6520   -0.3810 N   0  0  0  0  0  0  0  0  0  0  0  0
  -11.4680   -1.3600   -0.2730 C   0  0  0  0  0  0  0  0  0  0  0  0
  -12.1750   -0.8200    0.9980 C   0  0  0  0  0  0  0  0  0  0  0  0
  -12.3520    0.6580    0.8530 N   0  3  0  0  0  0  0  0  0  0  0  0
  -13.0760    1.1770    2.0050 C   0  0  0  0  0  0  0  0  0  0  0  0
  -14.4770    1.3080    1.4460 C   0  0  0  0  0  0  0  0  0  0  0  0
  -14.7890    2.2020    0.4720 C   0  0  0  0  0  0  0  0  0  0  0  0
  -13.8050    3.1230   -0.0850 C   0  0  0  0  0  0  0  0  0  0  0  0
  -13.2640    4.1500    0.6990 C   0  0  0  0  0  0  0  0  0  0  0  0
  -12.2770    4.9850    0.1910 C   0  0  0  0  0  0  0  0  0  0  0  0
  -11.8230    4.8090   -1.1180 C   0  0  0  0  0  0  0  0  0  0  0  0
  -10.5690    5.8260   -1.7430 Cl  0  0  0  0  0  0  0  0  0  0  0  0
  -12.3760    3.8100   -1.9200 C   0  0  0  0  0  0  0  0  0  0  0  0
  -13.3630    2.9770   -1.4070 C   0  0  0  0  0  0  0  0  0  0  0  0
  -16.1960    2.3630   -0.0930 C   0  0  0  0  0  0  0  0  0  0  0  0
  -17.0660    1.1410    0.2660 C   0  0  0  0  0  0  0  0  0  0  0  0
  -16.9210    0.8110    1.7650 C   0  0  0  0  0  0  0  0  0  0  0  0
  -17.8970   -0.3360    2.0820 C   0  0  0  0  0  0  0  0  0  0  0  0
  -17.3020    1.9840    2.6940 C   0  0  0  0  0  0  0  0  0  0  0  0
  -15.4800    0.3270    2.0470 C   0  0  0  0  0  0  0  0  0  0  0  0
  -11.0060    1.3110    0.7980 C   0  0  0  0  0  0  0  0  0  0  0  0
  -10.2790    0.8290   -0.4830 C   0  0  0  0  0  0  0  0  0  0  0  0
   -9.3540   -2.2570   -2.0450 C   0  0  0  0  0  0  0  0  0  0  0  0
   -8.2900   -2.8400   -2.7180 C   0  0  0  0  0  0  0  0  0  0  0  0
   -1.8180   -4.6430   -1.0060 C   0  0  0  0  0  0  0  0  0  0  0  0
   -0.7460   -4.4470   -0.1300 C   0  0  0  0  0  0  0  0  0  0  0  0
   -0.5270   -5.5740    1.2670 S   0  0  0  0  0  0  0  0  0  0  0  0
    0.8680   -5.6630    1.5800 O   0  0  0  0  0  0  0  0  0  0  0  0
   -1.1550   -6.8090    0.9430 O   0  0  0  0  0  0  0  0  0  0  0  0
   -1.4670   -4.7000    2.6620 C   0  0  0  0  0  0  0  0  0  0  0  0
   -1.6220   -5.4350    3.7860 F   0  0  0  0  0  0  0  0  0  0  0  0
   -2.7250   -4.3270    2.3160 F   0  0  0  0  0  0  0  0  0  0  0  0
   -0.8840   -3.5530    3.0800 F   0  0  0  0  0  0  0  0  0  0  0  0
    4.7230   -6.1210    0.7020 H   0  0  0  0  0  0  0  0  0  0  0  0
    6.4830   -6.3770    0.6200 H   0  0  0  0  0  0  0  0  0  0  0  0
    5.5360   -6.2210   -0.8790 H   0  0  0  0  0  0  0  0  0  0  0  0
    5.9050   -4.0890    1.1260 H   0  0  0  0  0  0  0  0  0  0  0  0
    7.1630   -4.7330   -1.4650 H   0  0  0  0  0  0  0  0  0  0  0  0
    7.0840   -3.0480   -0.8970 H   0  0  0  0  0  0  0  0  0  0  0  0
    8.3890   -5.4110    0.5700 H   0  0  0  0  0  0  0  0  0  0  0  0
    8.1980   -3.7840    1.2670 H   0  0  0  0  0  0  0  0  0  0  0  0
   10.5580   -3.3780    1.2320 H   0  0  0  0  0  0  0  0  0  0  0  0
   10.7940   -5.0350    0.6270 H   0  0  0  0  0  0  0  0  0  0  0  0
   11.6420   -2.4910   -0.8290 H   0  0  0  0  0  0  0  0  0  0  0  0
   11.9160   -4.1590   -1.3860 H   0  0  0  0  0  0  0  0  0  0  0  0
   14.2820   -3.8610   -1.2820 H   0  0  0  0  0  0  0  0  0  0  0  0
   14.0790   -2.1820   -0.7270 H   0  0  0  0  0  0  0  0  0  0  0  0
   15.3510   -4.3960    0.9390 H   0  0  0  0  0  0  0  0  0  0  0  0
   15.2760   -2.6640    1.3400 H   0  0  0  0  0  0  0  0  0  0  0  0
   17.7100   -2.6610    1.4380 H   0  0  0  0  0  0  0  0  0  0  0  0
   17.6800   -4.3920    1.0250 H   0  0  0  0  0  0  0  0  0  0  0  0
   19.1110   -2.1470   -0.4500 H   0  0  0  0  0  0  0  0  0  0  0  0
   18.8790   -3.7700   -1.1450 H   0  0  0  0  0  0  0  0  0  0  0  0
   21.2130   -4.1380   -1.1340 H   0  0  0  0  0  0  0  0  0  0  0  0
   21.5430   -2.5540   -0.3910 H   0  0  0  0  0  0  0  0  0  0  0  0
   22.1860   -5.2720    0.8610 H   0  0  0  0  0  0  0  0  0  0  0  0
   22.5250   -3.6860    1.5940 H   0  0  0  0  0  0  0  0  0  0  0  0
   23.6810   -3.5080   -0.9420 H   0  0  0  0  0  0  0  0  0  0  0  0
   23.7100   -6.6720    0.7150 H   0  0  0  0  0  0  0  0  0  0  0  0
   25.7490   -7.9350    1.3100 H   0  0  0  0  0  0  0  0  0  0  0  0
   27.9840   -6.8680    1.1290 H   0  0  0  0  0  0  0  0  0  0  0  0
   29.7510   -2.1070   -0.5890 H   0  0  0  0  0  0  0  0  0  0  0  0
   27.3980   -0.3130    0.2690 H   0  0  0  0  0  0  0  0  0  0  0  0
   28.7390   -0.8400    1.3130 H   0  0  0  0  0  0  0  0  0  0  0  0
   30.3710    0.2850   -0.2360 H   0  0  0  0  0  0  0  0  0  0  0  0
   29.1880    1.4530    0.4000 H   0  0  0  0  0  0  0  0  0  0  0  0
   28.3030    0.1240   -3.4510 H   0  0  0  0  0  0  0  0  0  0  0  0
    5.0360   -2.7490   -0.8720 H   0  0  0  0  0  0  0  0  0  0  0  0
    4.4420   -4.3360   -1.4150 H   0  0  0  0  0  0  0  0  0  0  0  0
    3.9540   -3.2800    1.4160 H   0  0  0  0  0  0  0  0  0  0  0  0
    3.1470   -4.6470    0.6120 H   0  0  0  0  0  0  0  0  0  0  0  0
    2.6010   -2.6940   -1.1880 H   0  0  0  0  0  0  0  0  0  0  0  0
    2.8420   -1.2080    1.4460 H   0  0  0  0  0  0  0  0  0  0  0  0
    1.7490   -0.6810    0.1450 H   0  0  0  0  0  0  0  0  0  0  0  0
    4.6170   -1.0420    2.3220 H   0  0  0  0  0  0  0  0  0  0  0  0
    6.7470   -1.4000    3.5130 H   0  0  0  0  0  0  0  0  0  0  0  0
    8.8940   -1.2430    2.2980 H   0  0  0  0  0  0  0  0  0  0  0  0
    8.9070   -0.7140   -0.1160 H   0  0  0  0  0  0  0  0  0  0  0  0
    6.7850   -0.3540   -1.3170 H   0  0  0  0  0  0  0  0  0  0  0  0
    1.1760   -3.3590    1.4470 H   0  0  0  0  0  0  0  0  0  0  0  0
    0.5750   -1.6810   -1.6230 H   0  0  0  0  0  0  0  0  0  0  0  0
   -1.3310   -2.0540   -3.1320 H   0  0  0  0  0  0  0  0  0  0  0  0
   -4.4230   -2.4220   -1.8870 H   0  0  0  0  0  0  0  0  0  0  0  0
   -5.7350   -1.0890   -1.3270 H   0  0  0  0  0  0  0  0  0  0  0  0
   -7.6130   -0.0660   -0.1120 H   0  0  0  0  0  0  0  0  0  0  0  0
  -12.0770   -1.1580   -1.1540 H   0  0  0  0  0  0  0  0  0  0  0  0
  -11.3040   -2.4340   -0.1820 H   0  0  0  0  0  0  0  0  0  0  0  0
  -11.5650   -1.0330    1.8760 H   0  0  0  0  0  0  0  0  0  0  0  0
  -13.1490   -1.2980    1.1080 H   0  0  0  0  0  0  0  0  0  0  0  0
  -12.8690    0.8520    0.0070 H   0  0  0  0  0  0  0  0  0  0  0  0
  -13.0450    0.4800    2.8420 H   0  0  0  0  0  0  0  0  0  0  0  0
  -12.6820    2.1430    2.3210 H   0  0  0  0  0  0  0  0  0  0  0  0
  -13.6180    4.2940    1.7090 H   0  0  0  0  0  0  0  0  0  0  0  0
  -11.8620    5.7690    0.8070 H   0  0  0  0  0  0  0  0  0  0  0  0
  -12.0370    3.6840   -2.9380 H   0  0  0  0  0  0  0  0  0  0  0  0
  -13.7940    2.2100   -2.0330 H   0  0  0  0  0  0  0  0  0  0  0  0
  -16.6500    3.2620    0.3250 H   0  0  0  0  0  0  0  0  0  0  0  0
  -16.1380    2.4560   -1.1770 H   0  0  0  0  0  0  0  0  0  0  0  0
  -16.7450    0.2830   -0.3250 H   0  0  0  0  0  0  0  0  0  0  0  0
  -18.1100    1.3640    0.0450 H   0  0  0  0  0  0  0  0  0  0  0  0
  -18.9180   -0.0080    1.8870 H   0  0  0  0  0  0  0  0  0  0  0  0
  -17.7990   -0.6170    3.1310 H   0  0  0  0  0  0  0  0  0  0  0  0
  -17.6650   -1.1950    1.4520 H   0  0  0  0  0  0  0  0  0  0  0  0
  -18.3200    2.3050    2.4750 H   0  0  0  0  0  0  0  0  0  0  0  0
  -16.6160    2.8150    2.5300 H   0  0  0  0  0  0  0  0  0  0  0  0
  -17.2390    1.6600    3.7330 H   0  0  0  0  0  0  0  0  0  0  0  0
  -15.3350   -0.6570    1.6010 H   0  0  0  0  0  0  0  0  0  0  0  0
  -15.3240    0.2640    3.1240 H   0  0  0  0  0  0  0  0  0  0  0  0
  -11.1240    2.3940    0.7690 H   0  0  0  0  0  0  0  0  0  0  0  0
  -10.4260    1.0320    1.6770 H   0  0  0  0  0  0  0  0  0  0  0  0
   -9.2880    1.2790   -0.5440 H   0  0  0  0  0  0  0  0  0  0  0  0
  -10.8560    1.1010   -1.3670 H   0  0  0  0  0  0  0  0  0  0  0  0
  -10.3650   -2.5760   -2.2510 H   0  0  0  0  0  0  0  0  0  0  0  0
   -8.4830   -3.6120   -3.4480 H   0  0  0  0  0  0  0  0  0  0  0  0
   -2.4850   -5.4770   -0.8440 H   0  0  0  0  0  0  0  0  0  0  0  0
  1  2  1  0  0  0  0
  1 96  1  0  0  0  0
  1 97  1  0  0  0  0
  1 98  1  0  0  0  0
  2  3  1  0  0  0  0
  2 37  1  0  0  0  0
  2 99  1  0  0  0  0
  3  4  1  0  0  0  0
  3100  1  0  0  0  0
  3101  1  0  0  0  0
  4  5  1  0  0  0  0
  4102  1  0  0  0  0
  4103  1  0  0  0  0
  5  6  1  0  0  0  0
  6  7  1  0  0  0  0
  6104  1  0  0  0  0
  6105  1  0  0  0  0
  7  8  1  0  0  0  0
  7106  1  0  0  0  0
  7107  1  0  0  0  0
  8  9  1  0  0  0  0
  9 10  1  0  0  0  0
  9108  1  0  0  0  0
  9109  1  0  0  0  0
 10 11  1  0  0  0  0
 10110  1  0  0  0  0
 10111  1  0  0  0  0
 11 12  1  0  0  0  0
 12 13  1  0  0  0  0
 12112  1  0  0  0  0
 12113  1  0  0  0  0
 13 14  1  0  0  0  0
 13114  1  0  0  0  0
 13115  1  0  0  0  0
 14 15  1  0  0  0  0
 15 16  1  0  0  0  0
 15116  1  0  0  0  0
 15117  1  0  0  0  0
 16 17  1  0  0  0  0
 16118  1  0  0  0  0
 16119  1  0  0  0  0
 17 18  1  0  0  0  0
 17120  1  0  0  0  0
 18 19  1  0  0  0  0
 18 23  2  0  0  0  0
 19 20  2  0  0  0  0
 19121  1  0  0  0  0
 20 21  1  0  0  0  0
 20122  1  0  0  0  0
 21 22  2  0  0  0  0
 21123  1  0  0  0  0
 22 23  1  0  0  0  0
 22 35  1  0  0  0  0
 23 24  1  0  0  0  0
 24 25  2  0  0  0  0
 24 26  1  0  0  0  0
 26 27  1  0  0  0  0
 26 35  1  0  0  0  0
 27 28  1  0  0  0  0
 27 33  1  0  0  0  0
 27124  1  0  0  0  0
 28 29  1  0  0  0  0
 28125  1  0  0  0  0
 28126  1  0  0  0  0
 29 30  1  0  0  0  0
 29127  1  0  0  0  0
 29128  1  0  0  0  0
 30 31  2  0  0  0  0
 30 32  1  0  0  0  0
 32 33  1  0  0  0  0
 32129  1  0  0  0  0
 33 34  2  0  0  0  0
 35 36  2  0  0  0  0
 37 38  1  0  0  0  0
 37130  1  0  0  0  0
 37131  1  0  0  0  0
 38 39  1  0  0  0  0
 38132  1  0  0  0  0
 38133  1  0  0  0  0
 39 40  1  0  0  0  0
 39 48  1  0  0  0  0
 39134  1  0  0  0  0
 40 41  1  0  0  0  0
 40135  1  0  0  0  0
 40136  1  0  0  0  0
 41 42  1  0  0  0  0
 42 43  1  0  0  0  0
 42 47  2  0  0  0  0
 43 44  2  0  0  0  0
 43137  1  0  0  0  0
 44 45  1  0  0  0  0
 44138  1  0  0  0  0
 45 46  2  0  0  0  0
 45139  1  0  0  0  0
 46 47  1  0  0  0  0
 46140  1  0  0  0  0
 47141  1  0  0  0  0
 48 49  1  0  0  0  0
 48142  1  0  0  0  0
 49 50  1  0  0  0  0
 49 88  2  0  0  0  0
 50 51  2  0  0  0  0
 50143  1  0  0  0  0
 51 52  1  0  0  0  0
 51144  1  0  0  0  0
 52 53  1  0  0  0  0
 52 87  2  0  0  0  0
 53 54  2  0  0  0  0
 53 55  2  0  0  0  0
 53 56  1  0  0  0  0
 56 57  1  0  0  0  0
 56145  1  0  0  0  0
 57 58  2  0  0  0  0
 57 59  1  0  0  0  0
 59 60  1  0  0  0  0
 59 86  2  0  0  0  0
 60 61  2  0  0  0  0
 60146  1  0  0  0  0
 61 62  1  0  0  0  0
 61147  1  0  0  0  0
 62 63  1  0  0  0  0
 62 85  2  0  0  0  0
 63 64  1  0  0  0  0
 63 84  1  0  0  0  0
 64 65  1  0  0  0  0
 64148  1  0  0  0  0
 64149  1  0  0  0  0
 65 66  1  0  0  0  0
 65150  1  0  0  0  0
 65151  1  0  0  0  0
 66 67  1  0  0  0  0
 66 83  1  0  0  0  0
 66152  1  0  0  0  0
 67 68  1  0  0  0  0
 67153  1  0  0  0  0
 67154  1  0  0  0  0
 68 69  2  0  0  0  0
 68 82  1  0  0  0  0
 69 70  1  0  0  0  0
 69 77  1  0  0  0  0
 70 71  1  0  0  0  0
 70 76  2  0  0  0  0
 71 72  2  0  0  0  0
 71155  1  0  0  0  0
 72 73  1  0  0  0  0
 72156  1  0  0  0  0
 73 74  1  0  0  0  0
 73 75  2  0  0  0  0
 75 76  1  0  0  0  0
 75157  1  0  0  0  0
 76158  1  0  0  0  0
 77 78  1  0  0  0  0
 77159  1  0  0  0  0
 77160  1  0  0  0  0
 78 79  1  0  0  0  0
 78161  1  0  0  0  0
 78162  1  0  0  0  0
 79 80  1  0  0  0  0
 79 81  1  0  0  0  0
 79 82  1  0  0  0  0
 80163  1  0  0  0  0
 80164  1  0  0  0  0
 80165  1  0  0  0  0
 81166  1  0  0  0  0
 81167  1  0  0  0  0
 81168  1  0  0  0  0
 82169  1  0  0  0  0
 82170  1  0  0  0  0
 83 84  1  0  0  0  0
 83171  1  0  0  0  0
 83172  1  0  0  0  0
 84173  1  0  0  0  0
 84174  1  0  0  0  0
 85 86  1  0  0  0  0
 85175  1  0  0  0  0
 86176  1  0  0  0  0
 87 88  1  0  0  0  0
 87177  1  0  0  0  0
 88 89  1  0  0  0  0
 89 90  2  0  0  0  0
 89 91  2  0  0  0  0
 89 92  1  0  0  0  0
 92 93  1  0  0  0  0
 92 94  1  0  0  0  0
 92 95  1  0  0  0  0
M  CHG  1   2   1
M  CHG  1  66   1
M  END
>  <Compound ID>
671

>  <Uniprot>
Q07817

>  <Target>
BCL-xL

>  <E3 ligase>
CRBN

>  <IC50 (nM, Cellular activities)>
19.3

>  <Assay (Cellular activities, IC50)>
Inhibit viability of MOLT-4 cells

>  <Article DOI>
10.1016/j.ejmech.2020.112186

>  <Molecular Weight>
1394.068

>  <Exact Mass>
1392.4647

>  <XLogP3>
9.8000002

>  <Heavy Atom Count>
95

>  <Ring Count>
9

>  <Hydrogen Bond Acceptor Count>
19

>  <Hydrogen Bond Donor Count>
4

>  <Rotatable Bond Count>
33

>  <Topological Polar Surface Area>
251.63

>  <Molecular Formula>
C67H80ClF3N8O13S3

>  <InChI>
InChI=1S/C67H80ClF3N8O13S3/c1-66(2)26-24-54(46-12-16-49(68)17-13-46)48(43-66)44-77-29-31-78(32-30-77)51-18-14-47(15-19-51)62(81)75-95(87,88)53-20-21-56(59(42-53)94(85,86)67(69,70)71)73-50(45-93-52-8-5-4-6-9-52)25-28-76(3)33-35-90-37-39-92-41-40-91-38-36-89-34-27-72-57-11-7-10-55-61(57)65(84)79(64(55)83)58-22-23-60(80)74-63(58)82/h4-21,42,50,58,72-73H,22-41,43-45H2,1-3H3,(H,75,81)(H,74,80,82)/t50-,58?/m1/s1

>  <InChI Key>
YIYROHZVGRZRNT-XIMDYXIDSA-N

$$$$
