574
  MOE2018           3D

172180  0  0  1  0  0  0  0  0999 V2000
   36.2060   26.2270    2.0390 C   0  0  0  0  0  0  0  0  0  0  0  0
   36.1310   24.9810    1.5240 C   0  0  0  0  0  0  0  0  0  0  0  0
   35.1880   24.5930    0.4820 C   0  0  0  0  0  0  0  0  0  0  0  0
   34.3880   25.3670   -0.0200 O   0  0  0  0  0  0  0  0  0  0  0  0
   35.2200   23.2770    0.0820 N   0  0  0  0  0  0  0  0  0  0  0  0
   34.4650   22.6690   -0.9490 C   0  0  0  0  0  0  0  0  0  0  0  0
   34.0950   23.3620   -2.1090 C   0  0  0  0  0  0  0  0  0  0  0  0
   33.3760   22.7060   -3.1070 C   0  0  0  0  0  0  0  0  0  0  0  0
   33.0300   21.3650   -2.9550 C   0  0  0  0  0  0  0  0  0  0  0  0
   33.4120   20.6910   -1.7930 C   0  0  0  0  0  0  0  0  0  0  0  0
   33.0490   19.3200   -1.6380 N   0  0  0  0  0  0  0  0  0  0  0  0
   33.9960   18.3260   -1.8910 C   0  0  0  0  0  0  0  0  0  0  0  0
   35.1550   18.6600   -2.1360 O   0  0  0  0  0  0  0  0  0  0  0  0
   33.5780   16.9500   -1.8530 C   0  0  0  0  0  0  0  0  0  0  0  0
   32.3070   16.5880   -1.5330 C   0  0  0  0  0  0  0  0  0  0  0  0
   31.9090   15.1220   -1.5130 C   0  0  0  0  0  0  0  0  0  0  0  0
   31.3530   17.6220   -1.2100 C   0  0  0  0  0  0  0  0  0  0  0  0
   30.0270   17.3760   -0.8330 C   0  0  0  0  0  0  0  0  0  0  0  0
   29.2160   18.3630   -0.5280 N   0  0  0  0  0  0  0  0  0  0  0  0
   29.6840   19.6250   -0.5850 C   0  0  0  0  0  0  0  0  0  0  0  0
   28.8920   20.6880   -0.2820 N   0  0  0  0  0  0  0  0  0  0  0  0
   27.5390   20.7730    0.1510 C   0  0  0  0  0  0  0  0  0  0  0  0
   26.9010   19.7490    0.8550 C   0  0  0  0  0  0  0  0  0  0  0  0
   25.5800   19.9110    1.2630 C   0  0  0  0  0  0  0  0  0  0  0  0
   24.8910   21.0950    0.9780 C   0  0  0  0  0  0  0  0  0  0  0  0
   23.5550   21.2020    1.4270 N   0  0  0  0  0  0  0  0  0  0  0  0
   22.9650   22.5560    1.5770 C   0  0  0  0  0  0  0  0  0  0  0  0
   21.7530   22.4230    2.5250 C   0  0  0  0  0  0  0  0  0  0  0  0
   20.7880   21.4610    1.9140 N   0  0  0  0  0  0  0  0  0  0  0  0
   19.4720   21.7600    1.8780 C   0  0  0  0  0  0  0  0  0  0  0  0
   19.0690   22.8670    2.2210 O   0  0  0  0  0  0  0  0  0  0  0  0
   18.4650   20.6860    1.4300 C   0  0  0  0  0  0  0  0  0  0  0  0
   16.9750   21.0590    1.5720 C   0  0  0  0  0  0  0  0  0  0  0  0
   16.4860   22.0570    0.5100 C   0  0  0  0  0  0  0  0  0  0  0  0
   15.0020   22.3760    0.7450 C   0  0  0  0  0  0  0  0  0  0  0  0
   14.4700   23.3860   -0.2800 C   0  0  0  0  0  0  0  0  0  0  0  0
   12.9950   23.6930    0.0130 C   0  0  0  0  0  0  0  0  0  0  0  0
   12.4240   24.7210   -0.9740 C   0  0  0  0  0  0  0  0  0  0  0  0
   10.9600   25.0220   -0.6250 C   0  0  0  0  0  0  0  0  0  0  0  0
   10.3630   26.0730   -1.5720 C   0  0  0  0  0  0  0  0  0  0  0  0
    8.9120   26.3750   -1.1730 C   0  0  0  0  0  0  0  0  0  0  0  0
    8.2970   27.4420   -2.0820 C   0  0  0  0  0  0  0  0  0  0  0  0
    6.9440   27.6350   -1.5680 N   0  0  0  0  0  0  0  0  0  0  0  0
    5.9970   28.3570   -2.2440 C   0  0  0  0  0  0  0  0  0  0  0  0
    6.3040   28.8000   -3.3440 O   0  0  0  0  0  0  0  0  0  0  0  0
    4.6920   28.5770   -1.6170 C   0  0  0  0  0  0  0  0  0  0  0  0
    3.9360   29.7140   -1.9520 C   0  0  0  0  0  0  0  0  0  0  0  0
    2.7030   29.9590   -1.3560 C   0  0  0  0  0  0  0  0  0  0  0  0
    2.2000   29.0530   -0.4190 C   0  0  0  0  0  0  0  0  0  0  0  0
    0.9640   29.2170    0.2470 N   0  0  0  0  0  0  0  0  0  0  0  0
   -0.1370   29.9580   -0.0970 C   0  0  0  0  0  0  0  0  0  0  0  0
   -0.1430   30.6420   -1.1020 O   0  0  0  0  0  0  0  0  0  0  0  0
   -1.3500   29.7420    0.8220 C   0  0  2  0  0  0  0  0  0  0  0  0
   -1.8060   28.3220    0.7260 N   0  0  0  0  0  0  0  0  0  0  0  0
   -3.0500   28.3180   -0.0690 C   0  0  1  0  0  0  0  0  0  0  0  0
   -3.8460   27.0030    0.1060 C   0  0  0  0  0  0  0  0  0  0  0  0
   -3.3850   25.7920   -0.7440 C   0  0  0  0  0  0  0  0  0  0  0  0
   -4.2400   24.5840   -0.3270 C   0  0  0  0  0  0  0  0  0  0  0  0
   -1.9090   25.4290   -0.5160 C   0  0  0  0  0  0  0  0  0  0  0  0
   -3.6090   26.0270   -2.2470 C   0  0  0  0  0  0  0  0  0  0  0  0
   -3.7870   29.6060    0.4130 C   0  0  2  0  0  0  0  0  0  0  0  0
   -4.3400   29.3510    1.7780 C   0  0  0  0  0  0  0  0  0  0  0  0
   -4.7870   29.1390    2.8030 N   0  0  0  0  0  0  0  0  0  0  0  0
   -4.9120   30.0910   -0.5500 C   0  0  0  0  0  0  0  0  0  0  0  0
   -5.0860   29.5480   -1.8360 C   0  0  0  0  0  0  0  0  0  0  0  0
   -6.0950   30.0060   -2.6810 C   0  0  0  0  0  0  0  0  0  0  0  0
   -6.9580   31.0210   -2.2690 C   0  0  0  0  0  0  0  0  0  0  0  0
   -8.2080   31.5800   -3.3280 Cl  0  0  0  0  0  0  0  0  0  0  0  0
   -6.8100   31.5850   -1.0070 C   0  0  0  0  0  0  0  0  0  0  0  0
   -5.7990   31.1170   -0.1820 C   0  0  0  0  0  0  0  0  0  0  0  0
   -5.7080   31.7220    1.0200 F   0  0  0  0  0  0  0  0  0  0  0  0
   -2.5840   30.5930    0.3810 C   0  0  1  0  0  0  0  0  0  0  0  0
   -2.7430   31.9120    1.1610 C   0  0  0  0  0  0  0  0  0  0  0  0
   -3.0000   33.0670    0.4120 C   0  0  0  0  0  0  0  0  0  0  0  0
   -3.1700   34.3040    1.0330 C   0  0  0  0  0  0  0  0  0  0  0  0
   -3.0840   34.4200    2.4170 C   0  0  0  0  0  0  0  0  0  0  0  0
   -2.8200   33.2900    3.1890 C   0  0  0  0  0  0  0  0  0  0  0  0
   -2.6980   33.4480    4.9120 Cl  0  0  0  0  0  0  0  0  0  0  0  0
   -2.6510   32.0560    2.5520 C   0  0  0  0  0  0  0  0  0  0  0  0
   -2.3770   30.9960    3.3360 F   0  0  0  0  0  0  0  0  0  0  0  0
    2.9410   27.9110   -0.0810 C   0  0  0  0  0  0  0  0  0  0  0  0
    2.4020   27.0330    0.8600 O   0  0  0  0  0  0  0  0  0  0  0  0
    2.9900   25.7720    1.2620 C   0  0  0  0  0  0  0  0  0  0  0  0
    4.1740   27.6690   -0.6780 C   0  0  0  0  0  0  0  0  0  0  0  0
   21.3700   20.1150    1.6360 C   0  0  0  0  0  0  0  0  0  0  0  0
   22.6110   20.2960    0.7270 C   0  0  0  0  0  0  0  0  0  0  0  0
   25.5290   22.1320    0.2850 C   0  0  0  0  0  0  0  0  0  0  0  0
   26.8520   21.9660   -0.1210 C   0  0  0  0  0  0  0  0  0  0  0  0
   27.5340   22.9760   -0.8020 O   0  0  0  0  0  0  0  0  0  0  0  0
   26.9820   24.2620   -1.1570 C   0  0  0  0  0  0  0  0  0  0  0  0
   30.9080   19.9590   -0.9410 N   0  0  0  0  0  0  0  0  0  0  0  0
   31.7430   18.9710   -1.2550 C   0  0  0  0  0  0  0  0  0  0  0  0
   34.1290   21.3260   -0.7830 C   0  0  0  0  0  0  0  0  0  0  0  0
   35.5440   27.0010    1.6790 H   0  0  0  0  0  0  0  0  0  0  0  0
   36.9280   26.4500    2.8110 H   0  0  0  0  0  0  0  0  0  0  0  0
   36.8070   24.2300    1.9050 H   0  0  0  0  0  0  0  0  0  0  0  0
   35.8570   22.6740    0.5830 H   0  0  0  0  0  0  0  0  0  0  0  0
   34.3660   24.4010   -2.2300 H   0  0  0  0  0  0  0  0  0  0  0  0
   33.0860   23.2390   -4.0010 H   0  0  0  0  0  0  0  0  0  0  0  0
   32.4730   20.8530   -3.7260 H   0  0  0  0  0  0  0  0  0  0  0  0
   34.2970   16.1790   -2.0860 H   0  0  0  0  0  0  0  0  0  0  0  0
   30.8580   15.0340   -1.2360 H   0  0  0  0  0  0  0  0  0  0  0  0
   32.5220   14.5890   -0.7860 H   0  0  0  0  0  0  0  0  0  0  0  0
   32.0610   14.6910   -2.5020 H   0  0  0  0  0  0  0  0  0  0  0  0
   29.6660   16.3590   -0.7920 H   0  0  0  0  0  0  0  0  0  0  0  0
   29.3490   21.5830   -0.3830 H   0  0  0  0  0  0  0  0  0  0  0  0
   27.4300   18.8350    1.0820 H   0  0  0  0  0  0  0  0  0  0  0  0
   25.0840   19.1180    1.8030 H   0  0  0  0  0  0  0  0  0  0  0  0
   23.7000   23.2390    2.0040 H   0  0  0  0  0  0  0  0  0  0  0  0
   22.6410   22.9320    0.6070 H   0  0  0  0  0  0  0  0  0  0  0  0
   21.2750   23.3940    2.6520 H   0  0  0  0  0  0  0  0  0  0  0  0
   22.0820   22.0500    3.4950 H   0  0  0  0  0  0  0  0  0  0  0  0
   18.6560   20.4670    0.3790 H   0  0  0  0  0  0  0  0  0  0  0  0
   18.6440   19.7910    2.0260 H   0  0  0  0  0  0  0  0  0  0  0  0
   16.3820   20.1480    1.4880 H   0  0  0  0  0  0  0  0  0  0  0  0
   16.8230   21.5010    2.5560 H   0  0  0  0  0  0  0  0  0  0  0  0
   17.0700   22.9750    0.5790 H   0  0  0  0  0  0  0  0  0  0  0  0
   16.6110   21.6210   -0.4810 H   0  0  0  0  0  0  0  0  0  0  0  0
   14.4260   21.4540    0.6650 H   0  0  0  0  0  0  0  0  0  0  0  0
   14.8840   22.7920    1.7450 H   0  0  0  0  0  0  0  0  0  0  0  0
   15.0510   24.3060   -0.2170 H   0  0  0  0  0  0  0  0  0  0  0  0
   14.5610   22.9670   -1.2820 H   0  0  0  0  0  0  0  0  0  0  0  0
   12.9110   24.0900    1.0250 H   0  0  0  0  0  0  0  0  0  0  0  0
   12.4200   22.7710   -0.0650 H   0  0  0  0  0  0  0  0  0  0  0  0
   12.4790   24.3200   -1.9860 H   0  0  0  0  0  0  0  0  0  0  0  0
   13.0060   25.6410   -0.9150 H   0  0  0  0  0  0  0  0  0  0  0  0
   10.9090   25.3960    0.3980 H   0  0  0  0  0  0  0  0  0  0  0  0
   10.3800   24.1030   -0.7050 H   0  0  0  0  0  0  0  0  0  0  0  0
   10.3850   25.6930   -2.5930 H   0  0  0  0  0  0  0  0  0  0  0  0
   10.9520   26.9880   -1.5130 H   0  0  0  0  0  0  0  0  0  0  0  0
    8.8940   26.7320   -0.1430 H   0  0  0  0  0  0  0  0  0  0  0  0
    8.3240   25.4600   -1.2510 H   0  0  0  0  0  0  0  0  0  0  0  0
    8.2700   27.0970   -3.1150 H   0  0  0  0  0  0  0  0  0  0  0  0
    8.8660   28.3700   -2.0240 H   0  0  0  0  0  0  0  0  0  0  0  0
    6.6970   27.2200   -0.6810 H   0  0  0  0  0  0  0  0  0  0  0  0
    4.3190   30.4090   -2.6850 H   0  0  0  0  0  0  0  0  0  0  0  0
    2.1390   30.8430   -1.6160 H   0  0  0  0  0  0  0  0  0  0  0  0
    0.8780   28.7070    1.1150 H   0  0  0  0  0  0  0  0  0  0  0  0
   -1.0260   30.0230    1.8240 H   0  0  0  0  0  0  0  0  0  0  0  0
   -1.1010   27.7620    0.2690 H   0  0  0  0  0  0  0  0  0  0  0  0
   -2.8880   28.3420   -1.1470 H   0  0  0  0  0  0  0  0  0  0  0  0
   -3.7800   26.7140    1.1550 H   0  0  0  0  0  0  0  0  0  0  0  0
   -4.8850   27.2090   -0.1500 H   0  0  0  0  0  0  0  0  0  0  0  0
   -3.9420   23.7100   -0.9070 H   0  0  0  0  0  0  0  0  0  0  0  0
   -5.2920   24.8020   -0.5130 H   0  0  0  0  0  0  0  0  0  0  0  0
   -4.0920   24.3830    0.7340 H   0  0  0  0  0  0  0  0  0  0  0  0
   -1.6450   24.5740   -1.1380 H   0  0  0  0  0  0  0  0  0  0  0  0
   -1.7550   25.1760    0.5330 H   0  0  0  0  0  0  0  0  0  0  0  0
   -1.2810   26.2790   -0.7810 H   0  0  0  0  0  0  0  0  0  0  0  0
   -3.2720   25.1540   -2.8050 H   0  0  0  0  0  0  0  0  0  0  0  0
   -3.0440   26.9030   -2.5660 H   0  0  0  0  0  0  0  0  0  0  0  0
   -4.6700   26.1910   -2.4350 H   0  0  0  0  0  0  0  0  0  0  0  0
   -4.4260   28.7630   -2.1740 H   0  0  0  0  0  0  0  0  0  0  0  0
   -6.2100   29.5710   -3.6630 H   0  0  0  0  0  0  0  0  0  0  0  0
   -7.4700   32.3730   -0.6760 H   0  0  0  0  0  0  0  0  0  0  0  0
   -2.4760   30.9950   -0.6270 H   0  0  0  0  0  0  0  0  0  0  0  0
   -3.0680   32.9990   -0.6640 H   0  0  0  0  0  0  0  0  0  0  0  0
   -3.3700   35.1800    0.4340 H   0  0  0  0  0  0  0  0  0  0  0  0
   -3.2210   35.3810    2.8910 H   0  0  0  0  0  0  0  0  0  0  0  0
    2.3550   25.2970    2.0100 H   0  0  0  0  0  0  0  0  0  0  0  0
    3.9790   25.9500    1.6850 H   0  0  0  0  0  0  0  0  0  0  0  0
    3.0790   25.1190    0.3940 H   0  0  0  0  0  0  0  0  0  0  0  0
    4.7340   26.7820   -0.4190 H   0  0  0  0  0  0  0  0  0  0  0  0
   21.6660   19.6410    2.5720 H   0  0  0  0  0  0  0  0  0  0  0  0
   20.6320   19.4920    1.1310 H   0  0  0  0  0  0  0  0  0  0  0  0
   22.3130   20.7350   -0.2250 H   0  0  0  0  0  0  0  0  0  0  0  0
   23.0850   19.3310    0.5500 H   0  0  0  0  0  0  0  0  0  0  0  0
   25.0020   23.0490    0.0680 H   0  0  0  0  0  0  0  0  0  0  0  0
   27.7360   24.8490   -1.6820 H   0  0  0  0  0  0  0  0  0  0  0  0
   26.6760   24.7880   -0.2530 H   0  0  0  0  0  0  0  0  0  0  0  0
   26.1170   24.1200   -1.8050 H   0  0  0  0  0  0  0  0  0  0  0  0
   34.4190   20.7910    0.1090 H   0  0  0  0  0  0  0  0  0  0  0  0
  1  2  2  0  0  0  0
  1 94  1  0  0  0  0
  1 95  1  0  0  0  0
  2  3  1  0  0  0  0
  2 96  1  0  0  0  0
  3  4  2  0  0  0  0
  3  5  1  0  0  0  0
  5  6  1  0  0  0  0
  5 97  1  0  0  0  0
  6  7  1  0  0  0  0
  6 93  2  0  0  0  0
  7  8  2  0  0  0  0
  7 98  1  0  0  0  0
  8  9  1  0  0  0  0
  8 99  1  0  0  0  0
  9 10  2  0  0  0  0
  9100  1  0  0  0  0
 10 11  1  0  0  0  0
 10 93  1  0  0  0  0
 11 12  1  0  0  0  0
 11 92  1  0  0  0  0
 12 13  2  0  0  0  0
 12 14  1  0  0  0  0
 14 15  2  0  0  0  0
 14101  1  0  0  0  0
 15 16  1  0  0  0  0
 15 17  1  0  0  0  0
 16102  1  0  0  0  0
 16103  1  0  0  0  0
 16104  1  0  0  0  0
 17 18  2  0  0  0  0
 17 92  1  0  0  0  0
 18 19  1  0  0  0  0
 18105  1  0  0  0  0
 19 20  2  0  0  0  0
 20 21  1  0  0  0  0
 20 91  1  0  0  0  0
 21 22  1  0  0  0  0
 21106  1  0  0  0  0
 22 23  1  0  0  0  0
 22 88  2  0  0  0  0
 23 24  2  0  0  0  0
 23107  1  0  0  0  0
 24 25  1  0  0  0  0
 24108  1  0  0  0  0
 25 26  1  0  0  0  0
 25 87  2  0  0  0  0
 26 27  1  0  0  0  0
 26 86  1  0  0  0  0
 27 28  1  0  0  0  0
 27109  1  0  0  0  0
 27110  1  0  0  0  0
 28 29  1  0  0  0  0
 28111  1  0  0  0  0
 28112  1  0  0  0  0
 29 30  1  0  0  0  0
 29 85  1  0  0  0  0
 30 31  2  0  0  0  0
 30 32  1  0  0  0  0
 32 33  1  0  0  0  0
 32113  1  0  0  0  0
 32114  1  0  0  0  0
 33 34  1  0  0  0  0
 33115  1  0  0  0  0
 33116  1  0  0  0  0
 34 35  1  0  0  0  0
 34117  1  0  0  0  0
 34118  1  0  0  0  0
 35 36  1  0  0  0  0
 35119  1  0  0  0  0
 35120  1  0  0  0  0
 36 37  1  0  0  0  0
 36121  1  0  0  0  0
 36122  1  0  0  0  0
 37 38  1  0  0  0  0
 37123  1  0  0  0  0
 37124  1  0  0  0  0
 38 39  1  0  0  0  0
 38125  1  0  0  0  0
 38126  1  0  0  0  0
 39 40  1  0  0  0  0
 39127  1  0  0  0  0
 39128  1  0  0  0  0
 40 41  1  0  0  0  0
 40129  1  0  0  0  0
 40130  1  0  0  0  0
 41 42  1  0  0  0  0
 41131  1  0  0  0  0
 41132  1  0  0  0  0
 42 43  1  0  0  0  0
 42133  1  0  0  0  0
 42134  1  0  0  0  0
 43 44  1  0  0  0  0
 43135  1  0  0  0  0
 44 45  2  0  0  0  0
 44 46  1  0  0  0  0
 46 47  2  0  0  0  0
 46 84  1  0  0  0  0
 47 48  1  0  0  0  0
 47136  1  0  0  0  0
 48 49  2  0  0  0  0
 48137  1  0  0  0  0
 49 50  1  0  0  0  0
 49 81  1  0  0  0  0
 50 51  1  0  0  0  0
 50138  1  0  0  0  0
 51 52  2  0  0  0  0
 51 53  1  0  0  0  0
 53 54  1  0  0  0  0
 53 72  1  0  0  0  0
 53139  1  0  0  0  0
 54 55  1  0  0  0  0
 54140  1  0  0  0  0
 55 56  1  0  0  0  0
 55 61  1  0  0  0  0
 55141  1  0  0  0  0
 56 57  1  0  0  0  0
 56142  1  0  0  0  0
 56143  1  0  0  0  0
 57 58  1  0  0  0  0
 57 59  1  0  0  0  0
 57 60  1  0  0  0  0
 58144  1  0  0  0  0
 58145  1  0  0  0  0
 58146  1  0  0  0  0
 59147  1  0  0  0  0
 59148  1  0  0  0  0
 59149  1  0  0  0  0
 60150  1  0  0  0  0
 60151  1  0  0  0  0
 60152  1  0  0  0  0
 61 62  1  0  0  0  0
 61 64  1  0  0  0  0
 61 72  1  0  0  0  0
 62 63  3  0  0  0  0
 64 65  1  0  0  0  0
 64 70  2  0  0  0  0
 65 66  2  0  0  0  0
 65153  1  0  0  0  0
 66 67  1  0  0  0  0
 66154  1  0  0  0  0
 67 68  1  0  0  0  0
 67 69  2  0  0  0  0
 69 70  1  0  0  0  0
 69155  1  0  0  0  0
 70 71  1  0  0  0  0
 72 73  1  0  0  0  0
 72156  1  0  0  0  0
 73 74  1  0  0  0  0
 73 79  2  0  0  0  0
 74 75  2  0  0  0  0
 74157  1  0  0  0  0
 75 76  1  0  0  0  0
 75158  1  0  0  0  0
 76 77  2  0  0  0  0
 76159  1  0  0  0  0
 77 78  1  0  0  0  0
 77 79  1  0  0  0  0
 79 80  1  0  0  0  0
 81 82  1  0  0  0  0
 81 84  2  0  0  0  0
 82 83  1  0  0  0  0
 83160  1  0  0  0  0
 83161  1  0  0  0  0
 83162  1  0  0  0  0
 84163  1  0  0  0  0
 85 86  1  0  0  0  0
 85164  1  0  0  0  0
 85165  1  0  0  0  0
 86166  1  0  0  0  0
 86167  1  0  0  0  0
 87 88  1  0  0  0  0
 87168  1  0  0  0  0
 88 89  1  0  0  0  0
 89 90  1  0  0  0  0
 90169  1  0  0  0  0
 90170  1  0  0  0  0
 90171  1  0  0  0  0
 91 92  2  0  0  0  0
 93172  1  0  0  0  0
M  END
>  <Compound ID>
574

>  <Uniprot>
P00533

>  <Target>
EGFR L858R/T790M

>  <E3 ligase>
MDM2

>  <DC50 (nM)>
263.8

>  <Assay (DC50/Dmax)>
Degradation of EGFR L858R/T790M in H1975 cells after 16h treatment

>  <Article DOI>
10.1016/j.ejmech.2020.112199

>  <Molecular Weight>
1307.385

>  <Exact Mass>
1305.5509

>  <XLogP3>
12.96

>  <Heavy Atom Count>
93

>  <Ring Count>
9

>  <Hydrogen Bond Acceptor Count>
14

>  <Hydrogen Bond Donor Count>
5

>  <Rotatable Bond Count>
26

>  <Topological Polar Surface Area>
224.94

>  <Molecular Formula>
C71H79Cl2F2N11O7

>  <InChI>
InChI=1S/C71H79Cl2F2N11O7/c1-8-60(87)79-47-20-18-21-49(39-47)86-62(89)36-44(2)51-42-78-69(83-66(51)86)81-56-30-27-48(40-58(56)93-7)84-32-34-85(35-33-84)61(88)24-16-14-12-10-9-11-13-15-17-31-77-67(90)45-25-29-55(57(37-45)92-6)80-68(91)65-63(50-22-19-23-53(73)64(50)75)71(43-76,59(82-65)41-70(3,4)5)52-28-26-46(72)38-54(52)74/h8,18-23,25-30,36-40,42,59,63,65,82H,1,9-17,24,31-35,41H2,2-7H3,(H,77,90)(H,79,87)(H,80,91)(H,78,81,83)/t59-,63-,65+,71-/m0/s1

>  <InChI Key>
DCPNWQZQYCVVJX-UYDHSDFFSA-N

$$$$
575
  MOE2018           3D

174182  0  0  1  0  0  0  0  0999 V2000
   39.9280   24.7060    2.2480 C   0  0  0  0  0  0  0  0  0  0  0  0
   38.8530   25.5050    2.0700 C   0  0  0  0  0  0  0  0  0  0  0  0
   38.1130   25.5960    0.8180 C   0  0  0  0  0  0  0  0  0  0  0  0
   38.3960   24.9450   -0.1750 O   0  0  0  0  0  0  0  0  0  0  0  0
   37.0610   26.4830    0.7900 N   0  0  0  0  0  0  0  0  0  0  0  0
   36.1850   26.7770   -0.2860 C   0  0  0  0  0  0  0  0  0  0  0  0
   35.8630   25.8420   -1.2800 C   0  0  0  0  0  0  0  0  0  0  0  0
   34.9880   26.1960   -2.3060 C   0  0  0  0  0  0  0  0  0  0  0  0
   34.4260   27.4690   -2.3400 C   0  0  0  0  0  0  0  0  0  0  0  0
   34.7470   28.3820   -1.3330 C   0  0  0  0  0  0  0  0  0  0  0  0
   34.1600   29.6840   -1.3600 N   0  0  0  0  0  0  0  0  0  0  0  0
   34.9410   30.7810   -1.7360 C   0  0  0  0  0  0  0  0  0  0  0  0
   36.1380   30.6080   -1.9640 O   0  0  0  0  0  0  0  0  0  0  0  0
   34.3170   32.0720   -1.8380 C   0  0  0  0  0  0  0  0  0  0  0  0
   33.0020   32.2660   -1.5510 C   0  0  0  0  0  0  0  0  0  0  0  0
   32.3870   33.6500   -1.6720 C   0  0  0  0  0  0  0  0  0  0  0  0
   32.2140   31.1360   -1.1250 C   0  0  0  0  0  0  0  0  0  0  0  0
   30.8580   31.2140   -0.7870 C   0  0  0  0  0  0  0  0  0  0  0  0
   30.1980   30.1520   -0.3910 N   0  0  0  0  0  0  0  0  0  0  0  0
   30.8500   28.9750   -0.3120 C   0  0  0  0  0  0  0  0  0  0  0  0
   30.2020   27.8460    0.0850 N   0  0  0  0  0  0  0  0  0  0  0  0
   28.8200   27.6570    0.3610 C   0  0  0  0  0  0  0  0  0  0  0  0
   28.0650   28.6140    1.0400 C   0  0  0  0  0  0  0  0  0  0  0  0
   26.7100   28.3940    1.2650 C   0  0  0  0  0  0  0  0  0  0  0  0
   26.0980   27.2170    0.8140 C   0  0  0  0  0  0  0  0  0  0  0  0
   24.7020   27.0720    1.0280 N   0  0  0  0  0  0  0  0  0  0  0  0
   24.1250   25.7060    0.9510 C   0  0  0  0  0  0  0  0  0  0  0  0
   22.7110   25.7700    1.5880 C   0  0  0  0  0  0  0  0  0  0  0  0
   21.8710   26.7440    0.8020 N   0  3  0  0  0  0  0  0  0  0  0  0
   20.5170   26.7840    1.3750 C   0  0  0  0  0  0  0  0  0  0  0  0
   19.7520   25.6440    0.6870 C   0  0  0  0  0  0  0  0  0  0  0  0
   18.2960   25.7470    1.1690 C   0  0  0  0  0  0  0  0  0  0  0  0
   17.4450   24.6520    0.5130 C   0  0  0  0  0  0  0  0  0  0  0  0
   15.9760   24.7730    0.9410 C   0  0  0  0  0  0  0  0  0  0  0  0
   15.1370   23.6720    0.2790 C   0  0  0  0  0  0  0  0  0  0  0  0
   13.6540   23.8090    0.6490 C   0  0  0  0  0  0  0  0  0  0  0  0
   12.8360   22.7070   -0.0370 C   0  0  0  0  0  0  0  0  0  0  0  0
   11.3400   22.8580    0.2700 C   0  0  0  0  0  0  0  0  0  0  0  0
   10.5440   21.7560   -0.4470 C   0  0  0  0  0  0  0  0  0  0  0  0
    9.0330   21.8160   -0.1710 C   0  0  0  0  0  0  0  0  0  0  0  0
    8.3840   23.0980   -0.7040 C   0  0  0  0  0  0  0  0  0  0  0  0
    6.9470   22.8870   -0.5590 N   0  0  0  0  0  0  0  0  0  0  0  0
    6.0390   23.8930   -0.7600 C   0  0  0  0  0  0  0  0  0  0  0  0
    6.4790   25.0250   -0.9250 O   0  0  0  0  0  0  0  0  0  0  0  0
    4.6120   23.5700   -0.8100 C   0  0  0  0  0  0  0  0  0  0  0  0
    4.0980   22.4020   -0.2150 C   0  0  0  0  0  0  0  0  0  0  0  0
    2.7470   22.0840   -0.3110 C   0  0  0  0  0  0  0  0  0  0  0  0
    1.8830   22.9440   -0.9950 C   0  0  0  0  0  0  0  0  0  0  0  0
    0.5050   22.6830   -1.1750 N   0  0  0  0  0  0  0  0  0  0  0  0
   -0.3300   21.8310   -0.5020 C   0  0  0  0  0  0  0  0  0  0  0  0
    0.0640   21.1960    0.4580 O   0  0  0  0  0  0  0  0  0  0  0  0
   -1.7810   21.8310   -1.0050 C   0  0  2  0  0  0  0  0  0  0  0  0
   -2.4270   23.1600   -0.7650 N   0  0  0  0  0  0  0  0  0  0  0  0
   -3.5090   22.9630    0.2260 C   0  0  1  0  0  0  0  0  0  0  0  0
   -4.5840   24.0730    0.1420 C   0  0  0  0  0  0  0  0  0  0  0  0
   -4.2720   25.4100    0.8590 C   0  0  0  0  0  0  0  0  0  0  0  0
   -5.4240   26.3800    0.5480 C   0  0  0  0  0  0  0  0  0  0  0  0
   -4.2030   25.2390    2.3850 C   0  0  0  0  0  0  0  0  0  0  0  0
   -2.9660   26.0560    0.3730 C   0  0  0  0  0  0  0  0  0  0  0  0
   -4.0320   21.5210   -0.0730 C   0  0  2  0  0  0  0  0  0  0  0  0
   -4.8400   21.5610   -1.3310 C   0  0  0  0  0  0  0  0  0  0  0  0
   -5.4770   21.6090   -2.2720 N   0  0  0  0  0  0  0  0  0  0  0  0
   -4.8500   20.8840    1.0900 C   0  0  0  0  0  0  0  0  0  0  0  0
   -4.9150   21.4640    2.3690 C   0  0  0  0  0  0  0  0  0  0  0  0
   -5.6440   20.8670    3.3950 C   0  0  0  0  0  0  0  0  0  0  0  0
   -6.3270   19.6700    3.1760 C   0  0  0  0  0  0  0  0  0  0  0  0
   -7.2280   18.9390    4.4600 Cl  0  0  0  0  0  0  0  0  0  0  0  0
   -6.2800   19.0670    1.9250 C   0  0  0  0  0  0  0  0  0  0  0  0
   -5.5490   19.6760    0.9170 C   0  0  0  0  0  0  0  0  0  0  0  0
   -5.5400   19.0250   -0.2630 F   0  0  0  0  0  0  0  0  0  0  0  0
   -2.6610   20.8100   -0.2250 C   0  0  1  0  0  0  0  0  0  0  0  0
   -2.6640   19.3880   -0.8150 C   0  0  0  0  0  0  0  0  0  0  0  0
   -2.4980   18.3300    0.0870 C   0  0  0  0  0  0  0  0  0  0  0  0
   -2.4980   17.0050   -0.3500 C   0  0  0  0  0  0  0  0  0  0  0  0
   -2.6600   16.7040   -1.6980 C   0  0  0  0  0  0  0  0  0  0  0  0
   -2.8190   17.7350   -2.6210 C   0  0  0  0  0  0  0  0  0  0  0  0
   -3.0070   17.3490   -4.3010 Cl  0  0  0  0  0  0  0  0  0  0  0  0
   -2.8160   19.0590   -2.1690 C   0  0  0  0  0  0  0  0  0  0  0  0
   -2.9540   20.0220   -3.0980 F   0  0  0  0  0  0  0  0  0  0  0  0
    2.3790   24.1210   -1.5740 C   0  0  0  0  0  0  0  0  0  0  0  0
    1.4850   24.9530   -2.2470 O   0  0  0  0  0  0  0  0  0  0  0  0
    1.8390   26.2210   -2.8540 C   0  0  0  0  0  0  0  0  0  0  0  0
    3.7310   24.4340   -1.4780 C   0  0  0  0  0  0  0  0  0  0  0  0
   22.4820   28.1040    0.9750 C   0  0  0  0  0  0  0  0  0  0  0  0
   23.8930   28.1050    0.3270 C   0  0  0  0  0  0  0  0  0  0  0  0
   26.8630   26.2310    0.1730 C   0  0  0  0  0  0  0  0  0  0  0  0
   28.2220   26.4540   -0.0440 C   0  0  0  0  0  0  0  0  0  0  0  0
   29.0260   25.4990   -0.6670 O   0  0  0  0  0  0  0  0  0  0  0  0
   28.5930   24.1950   -1.1120 C   0  0  0  0  0  0  0  0  0  0  0  0
   32.1210   28.7960   -0.6140 N   0  0  0  0  0  0  0  0  0  0  0  0
   32.8050   29.8640   -1.0240 C   0  0  0  0  0  0  0  0  0  0  0  0
   35.6230   28.0520   -0.3030 C   0  0  0  0  0  0  0  0  0  0  0  0
   40.2820   24.0890    1.4360 H   0  0  0  0  0  0  0  0  0  0  0  0
   40.4330   24.6850    3.2020 H   0  0  0  0  0  0  0  0  0  0  0  0
   38.5240   26.1100    2.9020 H   0  0  0  0  0  0  0  0  0  0  0  0
   36.8910   26.9900    1.6470 H   0  0  0  0  0  0  0  0  0  0  0  0
   36.2910   24.8510   -1.2510 H   0  0  0  0  0  0  0  0  0  0  0  0
   34.7450   25.4800   -3.0770 H   0  0  0  0  0  0  0  0  0  0  0  0
   33.7500   27.7470   -3.1350 H   0  0  0  0  0  0  0  0  0  0  0  0
   34.9120   32.9160   -2.1530 H   0  0  0  0  0  0  0  0  0  0  0  0
   31.3320   33.6040   -1.4020 H   0  0  0  0  0  0  0  0  0  0  0  0
   32.4840   34.0020   -2.6990 H   0  0  0  0  0  0  0  0  0  0  0  0
   32.9040   34.3370   -1.0020 H   0  0  0  0  0  0  0  0  0  0  0  0
   30.3470   32.1630   -0.8530 H   0  0  0  0  0  0  0  0  0  0  0  0
   30.7840   27.0280    0.2000 H   0  0  0  0  0  0  0  0  0  0  0  0
   28.5310   29.5230    1.3900 H   0  0  0  0  0  0  0  0  0  0  0  0
   26.1260   29.1350    1.7910 H   0  0  0  0  0  0  0  0  0  0  0  0
   24.0520   25.3890   -0.0890 H   0  0  0  0  0  0  0  0  0  0  0  0
   24.7510   25.0040    1.5020 H   0  0  0  0  0  0  0  0  0  0  0  0
   22.7890   26.1050    2.6220 H   0  0  0  0  0  0  0  0  0  0  0  0
   22.2510   24.7820    1.5600 H   0  0  0  0  0  0  0  0  0  0  0  0
   21.8300   26.4720   -0.1700 H   0  0  0  0  0  0  0  0  0  0  0  0
   20.5540   26.6240    2.4530 H   0  0  0  0  0  0  0  0  0  0  0  0
   20.0420   27.7430    1.1660 H   0  0  0  0  0  0  0  0  0  0  0  0
   19.8000   25.7580   -0.3960 H   0  0  0  0  0  0  0  0  0  0  0  0
   20.1760   24.6810    0.9700 H   0  0  0  0  0  0  0  0  0  0  0  0
   18.2650   25.6270    2.2520 H   0  0  0  0  0  0  0  0  0  0  0  0
   17.8950   26.7240    0.9000 H   0  0  0  0  0  0  0  0  0  0  0  0
   17.5110   24.7500   -0.5710 H   0  0  0  0  0  0  0  0  0  0  0  0
   17.8250   23.6760    0.8140 H   0  0  0  0  0  0  0  0  0  0  0  0
   15.9080   24.6750    2.0240 H   0  0  0  0  0  0  0  0  0  0  0  0
   15.5930   25.7480    0.6400 H   0  0  0  0  0  0  0  0  0  0  0  0
   15.2420   23.7470   -0.8030 H   0  0  0  0  0  0  0  0  0  0  0  0
   15.4990   22.7000    0.6130 H   0  0  0  0  0  0  0  0  0  0  0  0
   13.2900   24.7840    0.3240 H   0  0  0  0  0  0  0  0  0  0  0  0
   13.5420   23.7210    1.7300 H   0  0  0  0  0  0  0  0  0  0  0  0
   13.1770   21.7350    0.3210 H   0  0  0  0  0  0  0  0  0  0  0  0
   12.9870   22.7700   -1.1150 H   0  0  0  0  0  0  0  0  0  0  0  0
   10.9970   23.8340   -0.0750 H   0  0  0  0  0  0  0  0  0  0  0  0
   11.1820   22.7760    1.3450 H   0  0  0  0  0  0  0  0  0  0  0  0
   10.9180   20.7880   -0.1140 H   0  0  0  0  0  0  0  0  0  0  0  0
   10.7030   21.8580   -1.5200 H   0  0  0  0  0  0  0  0  0  0  0  0
    8.8730   21.7660    0.9060 H   0  0  0  0  0  0  0  0  0  0  0  0
    8.5570   20.9600   -0.6490 H   0  0  0  0  0  0  0  0  0  0  0  0
    8.6440   23.2520   -1.7510 H   0  0  0  0  0  0  0  0  0  0  0  0
    8.7050   23.9600   -0.1200 H   0  0  0  0  0  0  0  0  0  0  0  0
    6.6110   21.9700   -0.3020 H   0  0  0  0  0  0  0  0  0  0  0  0
    4.7630   21.7430    0.3240 H   0  0  0  0  0  0  0  0  0  0  0  0
    2.3680   21.1790    0.1400 H   0  0  0  0  0  0  0  0  0  0  0  0
    0.0670   23.2080   -1.9180 H   0  0  0  0  0  0  0  0  0  0  0  0
   -1.7260   21.5820   -2.0650 H   0  0  0  0  0  0  0  0  0  0  0  0
   -1.7460   23.8130   -0.4050 H   0  0  0  0  0  0  0  0  0  0  0  0
   -3.1720   23.0450    1.2590 H   0  0  0  0  0  0  0  0  0  0  0  0
   -4.7450   24.2950   -0.9130 H   0  0  0  0  0  0  0  0  0  0  0  0
   -5.5020   23.6750    0.5740 H   0  0  0  0  0  0  0  0  0  0  0  0
   -5.2370   27.3350    1.0390 H   0  0  0  0  0  0  0  0  0  0  0  0
   -6.3610   25.9610    0.9140 H   0  0  0  0  0  0  0  0  0  0  0  0
   -5.4900   26.5320   -0.5290 H   0  0  0  0  0  0  0  0  0  0  0  0
   -3.9820   26.2000    2.8490 H   0  0  0  0  0  0  0  0  0  0  0  0
   -3.4180   24.5260    2.6360 H   0  0  0  0  0  0  0  0  0  0  0  0
   -5.1600   24.8700    2.7530 H   0  0  0  0  0  0  0  0  0  0  0  0
   -2.8000   26.9890    0.9110 H   0  0  0  0  0  0  0  0  0  0  0  0
   -3.0370   26.2600   -0.6950 H   0  0  0  0  0  0  0  0  0  0  0  0
   -2.1340   25.3770    0.5580 H   0  0  0  0  0  0  0  0  0  0  0  0
   -4.3910   22.3890    2.5590 H   0  0  0  0  0  0  0  0  0  0  0  0
   -5.6810   21.3340    4.3680 H   0  0  0  0  0  0  0  0  0  0  0  0
   -6.8040   18.1400    1.7410 H   0  0  0  0  0  0  0  0  0  0  0  0
   -2.2600   20.5720    0.7600 H   0  0  0  0  0  0  0  0  0  0  0  0
   -2.3680   18.5430    1.1380 H   0  0  0  0  0  0  0  0  0  0  0  0
   -2.3710   16.2060    0.3650 H   0  0  0  0  0  0  0  0  0  0  0  0
   -2.6630   15.6760   -2.0280 H   0  0  0  0  0  0  0  0  0  0  0  0
    0.9550   26.6640   -3.3120 H   0  0  0  0  0  0  0  0  0  0  0  0
    2.6010   26.0590   -3.6170 H   0  0  0  0  0  0  0  0  0  0  0  0
    2.2280   26.8940   -2.0900 H   0  0  0  0  0  0  0  0  0  0  0  0
    4.1040   25.3460   -1.9200 H   0  0  0  0  0  0  0  0  0  0  0  0
   21.8550   28.8520    0.4890 H   0  0  0  0  0  0  0  0  0  0  0  0
   22.5660   28.3350    2.0370 H   0  0  0  0  0  0  0  0  0  0  0  0
   24.3570   29.0850    0.4440 H   0  0  0  0  0  0  0  0  0  0  0  0
   23.8170   27.8630   -0.7330 H   0  0  0  0  0  0  0  0  0  0  0  0
   26.4040   25.3080   -0.1490 H   0  0  0  0  0  0  0  0  0  0  0  0
   29.4340   23.6670   -1.5620 H   0  0  0  0  0  0  0  0  0  0  0  0
   27.7990   24.3080   -1.8500 H   0  0  0  0  0  0  0  0  0  0  0  0
   28.2200   23.6260   -0.2610 H   0  0  0  0  0  0  0  0  0  0  0  0
   35.8620   28.7700    0.4680 H   0  0  0  0  0  0  0  0  0  0  0  0
  1  2  2  0  0  0  0
  1 93  1  0  0  0  0
  1 94  1  0  0  0  0
  2  3  1  0  0  0  0
  2 95  1  0  0  0  0
  3  4  2  0  0  0  0
  3  5  1  0  0  0  0
  5  6  1  0  0  0  0
  5 96  1  0  0  0  0
  6  7  1  0  0  0  0
  6 92  2  0  0  0  0
  7  8  2  0  0  0  0
  7 97  1  0  0  0  0
  8  9  1  0  0  0  0
  8 98  1  0  0  0  0
  9 10  2  0  0  0  0
  9 99  1  0  0  0  0
 10 11  1  0  0  0  0
 10 92  1  0  0  0  0
 11 12  1  0  0  0  0
 11 91  1  0  0  0  0
 12 13  2  0  0  0  0
 12 14  1  0  0  0  0
 14 15  2  0  0  0  0
 14100  1  0  0  0  0
 15 16  1  0  0  0  0
 15 17  1  0  0  0  0
 16101  1  0  0  0  0
 16102  1  0  0  0  0
 16103  1  0  0  0  0
 17 18  2  0  0  0  0
 17 91  1  0  0  0  0
 18 19  1  0  0  0  0
 18104  1  0  0  0  0
 19 20  2  0  0  0  0
 20 21  1  0  0  0  0
 20 90  1  0  0  0  0
 21 22  1  0  0  0  0
 21105  1  0  0  0  0
 22 23  1  0  0  0  0
 22 87  2  0  0  0  0
 23 24  2  0  0  0  0
 23106  1  0  0  0  0
 24 25  1  0  0  0  0
 24107  1  0  0  0  0
 25 26  1  0  0  0  0
 25 86  2  0  0  0  0
 26 27  1  0  0  0  0
 26 85  1  0  0  0  0
 27 28  1  0  0  0  0
 27108  1  0  0  0  0
 27109  1  0  0  0  0
 28 29  1  0  0  0  0
 28110  1  0  0  0  0
 28111  1  0  0  0  0
 29 30  1  0  0  0  0
 29 84  1  0  0  0  0
 29112  1  0  0  0  0
 30 31  1  0  0  0  0
 30113  1  0  0  0  0
 30114  1  0  0  0  0
 31 32  1  0  0  0  0
 31115  1  0  0  0  0
 31116  1  0  0  0  0
 32 33  1  0  0  0  0
 32117  1  0  0  0  0
 32118  1  0  0  0  0
 33 34  1  0  0  0  0
 33119  1  0  0  0  0
 33120  1  0  0  0  0
 34 35  1  0  0  0  0
 34121  1  0  0  0  0
 34122  1  0  0  0  0
 35 36  1  0  0  0  0
 35123  1  0  0  0  0
 35124  1  0  0  0  0
 36 37  1  0  0  0  0
 36125  1  0  0  0  0
 36126  1  0  0  0  0
 37 38  1  0  0  0  0
 37127  1  0  0  0  0
 37128  1  0  0  0  0
 38 39  1  0  0  0  0
 38129  1  0  0  0  0
 38130  1  0  0  0  0
 39 40  1  0  0  0  0
 39131  1  0  0  0  0
 39132  1  0  0  0  0
 40 41  1  0  0  0  0
 40133  1  0  0  0  0
 40134  1  0  0  0  0
 41 42  1  0  0  0  0
 41135  1  0  0  0  0
 41136  1  0  0  0  0
 42 43  1  0  0  0  0
 42137  1  0  0  0  0
 43 44  2  0  0  0  0
 43 45  1  0  0  0  0
 45 46  2  0  0  0  0
 45 83  1  0  0  0  0
 46 47  1  0  0  0  0
 46138  1  0  0  0  0
 47 48  2  0  0  0  0
 47139  1  0  0  0  0
 48 49  1  0  0  0  0
 48 80  1  0  0  0  0
 49 50  1  0  0  0  0
 49140  1  0  0  0  0
 50 51  2  0  0  0  0
 50 52  1  0  0  0  0
 52 53  1  0  0  0  0
 52 71  1  0  0  0  0
 52141  1  0  0  0  0
 53 54  1  0  0  0  0
 53142  1  0  0  0  0
 54 55  1  0  0  0  0
 54 60  1  0  0  0  0
 54143  1  0  0  0  0
 55 56  1  0  0  0  0
 55144  1  0  0  0  0
 55145  1  0  0  0  0
 56 57  1  0  0  0  0
 56 58  1  0  0  0  0
 56 59  1  0  0  0  0
 57146  1  0  0  0  0
 57147  1  0  0  0  0
 57148  1  0  0  0  0
 58149  1  0  0  0  0
 58150  1  0  0  0  0
 58151  1  0  0  0  0
 59152  1  0  0  0  0
 59153  1  0  0  0  0
 59154  1  0  0  0  0
 60 61  1  0  0  0  0
 60 63  1  0  0  0  0
 60 71  1  0  0  0  0
 61 62  3  0  0  0  0
 63 64  1  0  0  0  0
 63 69  2  0  0  0  0
 64 65  2  0  0  0  0
 64155  1  0  0  0  0
 65 66  1  0  0  0  0
 65156  1  0  0  0  0
 66 67  1  0  0  0  0
 66 68  2  0  0  0  0
 68 69  1  0  0  0  0
 68157  1  0  0  0  0
 69 70  1  0  0  0  0
 71 72  1  0  0  0  0
 71158  1  0  0  0  0
 72 73  1  0  0  0  0
 72 78  2  0  0  0  0
 73 74  2  0  0  0  0
 73159  1  0  0  0  0
 74 75  1  0  0  0  0
 74160  1  0  0  0  0
 75 76  2  0  0  0  0
 75161  1  0  0  0  0
 76 77  1  0  0  0  0
 76 78  1  0  0  0  0
 78 79  1  0  0  0  0
 80 81  1  0  0  0  0
 80 83  2  0  0  0  0
 81 82  1  0  0  0  0
 82162  1  0  0  0  0
 82163  1  0  0  0  0
 82164  1  0  0  0  0
 83165  1  0  0  0  0
 84 85  1  0  0  0  0
 84166  1  0  0  0  0
 84167  1  0  0  0  0
 85168  1  0  0  0  0
 85169  1  0  0  0  0
 86 87  1  0  0  0  0
 86170  1  0  0  0  0
 87 88  1  0  0  0  0
 88 89  1  0  0  0  0
 89171  1  0  0  0  0
 89172  1  0  0  0  0
 89173  1  0  0  0  0
 90 91  2  0  0  0  0
 92174  1  0  0  0  0
M  CHG  1  29   1
M  END
>  <Compound ID>
575

>  <Uniprot>
P00533

>  <Target>
EGFR L858R/T790M

>  <E3 ligase>
MDM2

>  <DC50 (nM)>
>2000

>  <Assay (DC50/Dmax)>
Degradation of EGFR L858R/T790M in H1975 cells after 16h treatment

>  <Article DOI>
10.1016/j.ejmech.2020.112199

>  <Molecular Weight>
1293.402

>  <Exact Mass>
1291.5717

>  <XLogP3>
13.92

>  <Heavy Atom Count>
92

>  <Ring Count>
9

>  <Hydrogen Bond Acceptor Count>
14

>  <Hydrogen Bond Donor Count>
5

>  <Rotatable Bond Count>
27

>  <Topological Polar Surface Area>
207.87

>  <Molecular Formula>
C71H81Cl2F2N11O6

>  <InChI>
InChI=1S/C71H81Cl2F2N11O6/c1-8-61(87)79-48-21-19-22-50(40-48)86-62(88)37-45(2)52-43-78-69(83-66(52)86)81-57-30-27-49(41-59(57)92-7)85-35-33-84(34-36-85)32-18-16-14-12-10-9-11-13-15-17-31-77-67(89)46-25-29-56(58(38-46)91-6)80-68(90)65-63(51-23-20-24-54(73)64(51)75)71(44-76,60(82-65)42-70(3,4)5)53-28-26-47(72)39-55(53)74/h8,19-30,37-41,43,60,63,65,82H,1,9-18,31-36,42H2,2-7H3,(H,77,89)(H,79,87)(H,80,90)(H,78,81,83)/t60-,63-,65+,71-/m0/s1

>  <InChI Key>
UPZKEHBNYUDGOC-AFJHDGOUSA-N

$$$$
578
  MOE2018           3D

166174  0  0  1  0  0  0  0  0999 V2000
   32.6230  -13.2460    1.9030 C   0  0  0  0  0  0  0  0  0  0  0  0
   32.2020  -14.5260    1.8030 C   0  0  0  0  0  0  0  0  0  0  0  0
   31.9980  -15.2120    0.5340 C   0  0  0  0  0  0  0  0  0  0  0  0
   32.1810  -14.6820   -0.5510 O   0  0  0  0  0  0  0  0  0  0  0  0
   31.5930  -16.5260    0.6040 N   0  0  0  0  0  0  0  0  0  0  0  0
   31.3010  -17.4110   -0.4640 C   0  0  0  0  0  0  0  0  0  0  0  0
   30.7990  -16.9680   -1.6950 C   0  0  0  0  0  0  0  0  0  0  0  0
   30.5140  -17.8910   -2.7000 C   0  0  0  0  0  0  0  0  0  0  0  0
   30.7170  -19.2510   -2.4810 C   0  0  0  0  0  0  0  0  0  0  0  0
   31.2070  -19.6740   -1.2440 C   0  0  0  0  0  0  0  0  0  0  0  0
   31.3960  -21.0690   -1.0110 N   0  0  0  0  0  0  0  0  0  0  0  0
   32.6700  -21.6230   -1.1570 C   0  0  0  0  0  0  0  0  0  0  0  0
   33.6050  -20.8840   -1.4620 O   0  0  0  0  0  0  0  0  0  0  0  0
   32.8380  -23.0340   -0.9400 C   0  0  0  0  0  0  0  0  0  0  0  0
   31.8040  -23.8410   -0.5810 C   0  0  0  0  0  0  0  0  0  0  0  0
   32.0310  -25.3270   -0.3640 C   0  0  0  0  0  0  0  0  0  0  0  0
   30.4970  -23.2550   -0.4120 C   0  0  0  0  0  0  0  0  0  0  0  0
   29.3610  -23.9770   -0.0300 C   0  0  0  0  0  0  0  0  0  0  0  0
   28.1980  -23.3840    0.1080 N   0  0  0  0  0  0  0  0  0  0  0  0
   28.1140  -22.0610   -0.1280 C   0  0  0  0  0  0  0  0  0  0  0  0
   26.9250  -21.4100   -0.0190 N   0  0  0  0  0  0  0  0  0  0  0  0
   25.6410  -21.9300    0.3030 C   0  0  0  0  0  0  0  0  0  0  0  0
   25.4680  -22.9090    1.2820 C   0  0  0  0  0  0  0  0  0  0  0  0
   24.1900  -23.3790    1.5690 C   0  0  0  0  0  0  0  0  0  0  0  0
   23.0780  -22.8780    0.8810 C   0  0  0  0  0  0  0  0  0  0  0  0
   21.8020  -23.4000    1.2110 N   0  0  0  0  0  0  0  0  0  0  0  0
   21.6570  -24.8660    0.9730 C   0  0  0  0  0  0  0  0  0  0  0  0
   20.4970  -25.3690    1.8630 C   0  0  0  0  0  0  0  0  0  0  0  0
   19.2720  -24.6170    1.4720 N   0  0  0  0  0  0  0  0  0  0  0  0
   18.1570  -25.2710    1.0870 C   0  0  0  0  0  0  0  0  0  0  0  0
   18.1460  -26.4930    0.9770 O   0  0  0  0  0  0  0  0  0  0  0  0
   16.8830  -24.4740    0.7670 C   0  0  0  0  0  0  0  0  0  0  0  0
   15.6370  -25.3440    0.5110 C   0  0  0  0  0  0  0  0  0  0  0  0
   14.4250  -24.4780    0.1410 C   0  0  0  0  0  0  0  0  0  0  0  0
   13.1570  -25.3350    0.0350 C   0  0  0  0  0  0  0  0  0  0  0  0
   11.9700  -24.4800   -0.4280 C   0  0  0  0  0  0  0  0  0  0  0  0
   10.6660  -25.2880   -0.3980 C   0  0  0  0  0  0  0  0  0  0  0  0
    9.5090  -24.4500   -0.9590 C   0  0  0  0  0  0  0  0  0  0  0  0
    8.1670  -25.1800   -0.7980 C   0  0  0  0  0  0  0  0  0  0  0  0
    7.0450  -24.3650   -1.4460 C   0  0  0  0  0  0  0  0  0  0  0  0
    5.8080  -25.0720   -1.1210 N   0  0  0  0  0  0  0  0  0  0  0  0
    4.6620  -24.9050   -1.8560 C   0  0  0  0  0  0  0  0  0  0  0  0
    4.7520  -24.2710   -2.9000 O   0  0  0  0  0  0  0  0  0  0  0  0
    3.3980  -25.4520   -1.3560 C   0  0  0  0  0  0  0  0  0  0  0  0
    2.1830  -24.9080   -1.8080 C   0  0  0  0  0  0  0  0  0  0  0  0
    0.9630  -25.3770   -1.3340 C   0  0  0  0  0  0  0  0  0  0  0  0
    0.9410  -26.4150   -0.3990 C   0  0  0  0  0  0  0  0  0  0  0  0
   -0.2510  -26.9340    0.1590 N   0  0  0  0  0  0  0  0  0  0  0  0
   -1.5410  -26.8680   -0.3020 C   0  0  0  0  0  0  0  0  0  0  0  0
   -1.7970  -26.3550   -1.3740 O   0  0  0  0  0  0  0  0  0  0  0  0
   -2.5760  -27.5690    0.5910 C   0  0  2  0  0  0  0  0  0  0  0  0
   -2.3580  -29.0490    0.5990 N   0  0  0  0  0  0  0  0  0  0  0  0
   -3.5320  -29.6820   -0.0440 C   0  0  1  0  0  0  0  0  0  0  0  0
   -3.7160  -31.1540    0.3940 C   0  0  0  0  0  0  0  0  0  0  0  0
   -2.8520  -32.2180   -0.3270 C   0  0  0  0  0  0  0  0  0  0  0  0
   -3.1360  -33.5730    0.3410 C   0  0  0  0  0  0  0  0  0  0  0  0
   -1.3460  -31.9370   -0.2100 C   0  0  0  0  0  0  0  0  0  0  0  0
   -3.2180  -32.3430   -1.8150 C   0  0  0  0  0  0  0  0  0  0  0  0
   -4.7190  -28.7370    0.3290 C   0  0  2  0  0  0  0  0  0  0  0  0
   -5.0680  -28.9600    1.7660 C   0  0  0  0  0  0  0  0  0  0  0  0
   -5.3450  -29.1590    2.8510 N   0  0  0  0  0  0  0  0  0  0  0  0
   -5.9760  -28.9030   -0.5760 C   0  0  0  0  0  0  0  0  0  0  0  0
   -5.9570  -29.6680   -1.7560 C   0  0  0  0  0  0  0  0  0  0  0  0
   -7.0920  -29.7900   -2.5550 C   0  0  0  0  0  0  0  0  0  0  0  0
   -8.2800  -29.1500   -2.2020 C   0  0  0  0  0  0  0  0  0  0  0  0
   -9.6820  -29.3080   -3.2040 Cl  0  0  0  0  0  0  0  0  0  0  0  0
   -8.3330  -28.3820   -1.0440 C   0  0  0  0  0  0  0  0  0  0  0  0
   -7.1930  -28.2720   -0.2630 C   0  0  0  0  0  0  0  0  0  0  0  0
   -7.3190  -27.5010    0.8350 F   0  0  0  0  0  0  0  0  0  0  0  0
   -4.0240  -27.3780    0.0510 C   0  0  1  0  0  0  0  0  0  0  0  0
   -4.7330  -26.1070    0.5570 C   0  0  0  0  0  0  0  0  0  0  0  0
   -5.4090  -25.3380   -0.3990 C   0  0  0  0  0  0  0  0  0  0  0  0
   -6.0900  -24.1760   -0.0360 C   0  0  0  0  0  0  0  0  0  0  0  0
   -6.1100  -23.7510    1.2880 C   0  0  0  0  0  0  0  0  0  0  0  0
   -5.4400  -24.4900    2.2610 C   0  0  0  0  0  0  0  0  0  0  0  0
   -5.4600  -23.9440    3.9070 Cl  0  0  0  0  0  0  0  0  0  0  0  0
   -4.7600  -25.6530    1.8820 C   0  0  0  0  0  0  0  0  0  0  0  0
   -4.1120  -26.3240    2.8520 F   0  0  0  0  0  0  0  0  0  0  0  0
    2.1450  -26.9760    0.0530 C   0  0  0  0  0  0  0  0  0  0  0  0
    2.0780  -28.0080    0.9870 O   0  0  0  0  0  0  0  0  0  0  0  0
    3.2080  -28.7600    1.4910 C   0  0  0  0  0  0  0  0  0  0  0  0
    3.3650  -26.5050   -0.4240 C   0  0  0  0  0  0  0  0  0  0  0  0
   19.4030  -23.1430    1.6410 C   0  0  0  0  0  0  0  0  0  0  0  0
   20.5890  -22.6690    0.7640 C   0  0  0  0  0  0  0  0  0  0  0  0
   23.2460  -21.8790   -0.0890 C   0  0  0  0  0  0  0  0  0  0  0  0
   24.5270  -21.4050   -0.3680 C   0  0  0  0  0  0  0  0  0  0  0  0
   24.7420  -20.3990   -1.3110 O   0  0  0  0  0  0  0  0  0  0  0  0
   23.7130  -19.7820   -2.1150 C   0  0  0  0  0  0  0  0  0  0  0  0
   29.1220  -21.2940   -0.4910 N   0  0  0  0  0  0  0  0  0  0  0  0
   30.3110  -21.8790   -0.6320 C   0  0  0  0  0  0  0  0  0  0  0  0
   31.5050  -18.7700   -0.2290 C   0  0  0  0  0  0  0  0  0  0  0  0
   32.8280  -12.6740    1.0100 H   0  0  0  0  0  0  0  0  0  0  0  0
   32.7550  -12.7950    2.8760 H   0  0  0  0  0  0  0  0  0  0  0  0
   32.0060  -15.0710    2.7150 H   0  0  0  0  0  0  0  0  0  0  0  0
   31.4910  -16.9070    1.5340 H   0  0  0  0  0  0  0  0  0  0  0  0
   30.6330  -15.9140   -1.8650 H   0  0  0  0  0  0  0  0  0  0  0  0
   30.1340  -17.5500   -3.6520 H   0  0  0  0  0  0  0  0  0  0  0  0
   30.4980  -19.9690   -3.2580 H   0  0  0  0  0  0  0  0  0  0  0  0
   33.8190  -23.4680   -1.0660 H   0  0  0  0  0  0  0  0  0  0  0  0
   31.0900  -25.8010   -0.0840 H   0  0  0  0  0  0  0  0  0  0  0  0
   32.7620  -25.4710    0.4320 H   0  0  0  0  0  0  0  0  0  0  0  0
   32.4040  -25.7760   -1.2850 H   0  0  0  0  0  0  0  0  0  0  0  0
   29.4420  -25.0380    0.1540 H   0  0  0  0  0  0  0  0  0  0  0  0
   26.9590  -20.4150   -0.1910 H   0  0  0  0  0  0  0  0  0  0  0  0
   26.3220  -23.3000    1.8150 H   0  0  0  0  0  0  0  0  0  0  0  0
   24.0550  -24.1360    2.3280 H   0  0  0  0  0  0  0  0  0  0  0  0
   21.4280  -25.0520   -0.0760 H   0  0  0  0  0  0  0  0  0  0  0  0
   22.5810  -25.3800    1.2400 H   0  0  0  0  0  0  0  0  0  0  0  0
   20.7270  -25.1850    2.9130 H   0  0  0  0  0  0  0  0  0  0  0  0
   20.3440  -26.4370    1.7060 H   0  0  0  0  0  0  0  0  0  0  0  0
   16.6720  -23.8150    1.6090 H   0  0  0  0  0  0  0  0  0  0  0  0
   17.0700  -23.8750   -0.1240 H   0  0  0  0  0  0  0  0  0  0  0  0
   15.8460  -26.0330   -0.3080 H   0  0  0  0  0  0  0  0  0  0  0  0
   15.4070  -25.9110    1.4130 H   0  0  0  0  0  0  0  0  0  0  0  0
   14.2800  -23.7190    0.9090 H   0  0  0  0  0  0  0  0  0  0  0  0
   14.6110  -23.9940   -0.8180 H   0  0  0  0  0  0  0  0  0  0  0  0
   13.3240  -26.1370   -0.6840 H   0  0  0  0  0  0  0  0  0  0  0  0
   12.9310  -25.7640    1.0110 H   0  0  0  0  0  0  0  0  0  0  0  0
   12.1530  -24.1370   -1.4460 H   0  0  0  0  0  0  0  0  0  0  0  0
   11.8710  -23.6190    0.2330 H   0  0  0  0  0  0  0  0  0  0  0  0
   10.4410  -25.5700    0.6310 H   0  0  0  0  0  0  0  0  0  0  0  0
   10.7860  -26.1870   -1.0030 H   0  0  0  0  0  0  0  0  0  0  0  0
    9.6870  -24.2620   -2.0180 H   0  0  0  0  0  0  0  0  0  0  0  0
    9.4650  -23.5020   -0.4240 H   0  0  0  0  0  0  0  0  0  0  0  0
    7.9520  -25.3100    0.2630 H   0  0  0  0  0  0  0  0  0  0  0  0
    8.2280  -26.1560   -1.2790 H   0  0  0  0  0  0  0  0  0  0  0  0
    7.1840  -24.3180   -2.5260 H   0  0  0  0  0  0  0  0  0  0  0  0
    7.0240  -23.3540   -1.0380 H   0  0  0  0  0  0  0  0  0  0  0  0
    5.7970  -25.7020   -0.3320 H   0  0  0  0  0  0  0  0  0  0  0  0
    2.1980  -24.1110   -2.5370 H   0  0  0  0  0  0  0  0  0  0  0  0
    0.0390  -24.9420   -1.6860 H   0  0  0  0  0  0  0  0  0  0  0  0
   -0.1340  -27.4290    1.0310 H   0  0  0  0  0  0  0  0  0  0  0  0
   -2.4570  -27.1290    1.5810 H   0  0  0  0  0  0  0  0  0  0  0  0
   -1.5200  -29.2760    0.0830 H   0  0  0  0  0  0  0  0  0  0  0  0
   -3.4350  -29.7730   -1.1260 H   0  0  0  0  0  0  0  0  0  0  0  0
   -3.4870  -31.2110    1.4580 H   0  0  0  0  0  0  0  0  0  0  0  0
   -4.7620  -31.4160    0.2330 H   0  0  0  0  0  0  0  0  0  0  0  0
   -2.5420  -34.3480   -0.1430 H   0  0  0  0  0  0  0  0  0  0  0  0
   -4.1950  -33.8120    0.2430 H   0  0  0  0  0  0  0  0  0  0  0  0
   -2.8720  -33.5200    1.3970 H   0  0  0  0  0  0  0  0  0  0  0  0
   -0.7900  -32.7140   -0.7340 H   0  0  0  0  0  0  0  0  0  0  0  0
   -1.0580  -31.9300    0.8410 H   0  0  0  0  0  0  0  0  0  0  0  0
   -1.1220  -30.9670   -0.6550 H   0  0  0  0  0  0  0  0  0  0  0  0
   -2.5880  -33.1000   -2.2820 H   0  0  0  0  0  0  0  0  0  0  0  0
   -3.0610  -31.3840   -2.3100 H   0  0  0  0  0  0  0  0  0  0  0  0
   -4.2640  -32.6330   -1.9090 H   0  0  0  0  0  0  0  0  0  0  0  0
   -5.0460  -30.1700   -2.0480 H   0  0  0  0  0  0  0  0  0  0  0  0
   -7.0520  -30.3850   -3.4550 H   0  0  0  0  0  0  0  0  0  0  0  0
   -9.2460  -27.8800   -0.7580 H   0  0  0  0  0  0  0  0  0  0  0  0
   -4.0510  -27.1610   -1.0170 H   0  0  0  0  0  0  0  0  0  0  0  0
   -5.4030  -25.6500   -1.4330 H   0  0  0  0  0  0  0  0  0  0  0  0
   -6.6070  -23.6010   -0.7900 H   0  0  0  0  0  0  0  0  0  0  0  0
   -6.6430  -22.8520    1.5610 H   0  0  0  0  0  0  0  0  0  0  0  0
    2.8590  -29.5030    2.2080 H   0  0  0  0  0  0  0  0  0  0  0  0
    3.9060  -28.0820    1.9810 H   0  0  0  0  0  0  0  0  0  0  0  0
    3.7090  -29.2620    0.6630 H   0  0  0  0  0  0  0  0  0  0  0  0
    4.2870  -26.9480   -0.0780 H   0  0  0  0  0  0  0  0  0  0  0  0
   18.4850  -22.6500    1.3210 H   0  0  0  0  0  0  0  0  0  0  0  0
   19.5970  -22.9060    2.6870 H   0  0  0  0  0  0  0  0  0  0  0  0
   20.7360  -21.5960    0.8870 H   0  0  0  0  0  0  0  0  0  0  0  0
   20.3870  -22.8900   -0.2840 H   0  0  0  0  0  0  0  0  0  0  0  0
   22.3910  -21.4810   -0.6150 H   0  0  0  0  0  0  0  0  0  0  0  0
   24.1610  -19.0300   -2.7640 H   0  0  0  0  0  0  0  0  0  0  0  0
   22.9780  -19.3090   -1.4640 H   0  0  0  0  0  0  0  0  0  0  0  0
   23.2230  -20.5420   -2.7240 H   0  0  0  0  0  0  0  0  0  0  0  0
   31.8860  -19.1140    0.7210 H   0  0  0  0  0  0  0  0  0  0  0  0
  1  2  2  0  0  0  0
  1 92  1  0  0  0  0
  1 93  1  0  0  0  0
  2  3  1  0  0  0  0
  2 94  1  0  0  0  0
  3  4  2  0  0  0  0
  3  5  1  0  0  0  0
  5  6  1  0  0  0  0
  5 95  1  0  0  0  0
  6  7  1  0  0  0  0
  6 91  2  0  0  0  0
  7  8  2  0  0  0  0
  7 96  1  0  0  0  0
  8  9  1  0  0  0  0
  8 97  1  0  0  0  0
  9 10  2  0  0  0  0
  9 98  1  0  0  0  0
 10 11  1  0  0  0  0
 10 91  1  0  0  0  0
 11 12  1  0  0  0  0
 11 90  1  0  0  0  0
 12 13  2  0  0  0  0
 12 14  1  0  0  0  0
 14 15  2  0  0  0  0
 14 99  1  0  0  0  0
 15 16  1  0  0  0  0
 15 17  1  0  0  0  0
 16100  1  0  0  0  0
 16101  1  0  0  0  0
 16102  1  0  0  0  0
 17 18  2  0  0  0  0
 17 90  1  0  0  0  0
 18 19  1  0  0  0  0
 18103  1  0  0  0  0
 19 20  2  0  0  0  0
 20 21  1  0  0  0  0
 20 89  1  0  0  0  0
 21 22  1  0  0  0  0
 21104  1  0  0  0  0
 22 23  1  0  0  0  0
 22 86  2  0  0  0  0
 23 24  2  0  0  0  0
 23105  1  0  0  0  0
 24 25  1  0  0  0  0
 24106  1  0  0  0  0
 25 26  1  0  0  0  0
 25 85  2  0  0  0  0
 26 27  1  0  0  0  0
 26 84  1  0  0  0  0
 27 28  1  0  0  0  0
 27107  1  0  0  0  0
 27108  1  0  0  0  0
 28 29  1  0  0  0  0
 28109  1  0  0  0  0
 28110  1  0  0  0  0
 29 30  1  0  0  0  0
 29 83  1  0  0  0  0
 30 31  2  0  0  0  0
 30 32  1  0  0  0  0
 32 33  1  0  0  0  0
 32111  1  0  0  0  0
 32112  1  0  0  0  0
 33 34  1  0  0  0  0
 33113  1  0  0  0  0
 33114  1  0  0  0  0
 34 35  1  0  0  0  0
 34115  1  0  0  0  0
 34116  1  0  0  0  0
 35 36  1  0  0  0  0
 35117  1  0  0  0  0
 35118  1  0  0  0  0
 36 37  1  0  0  0  0
 36119  1  0  0  0  0
 36120  1  0  0  0  0
 37 38  1  0  0  0  0
 37121  1  0  0  0  0
 37122  1  0  0  0  0
 38 39  1  0  0  0  0
 38123  1  0  0  0  0
 38124  1  0  0  0  0
 39 40  1  0  0  0  0
 39125  1  0  0  0  0
 39126  1  0  0  0  0
 40 41  1  0  0  0  0
 40127  1  0  0  0  0
 40128  1  0  0  0  0
 41 42  1  0  0  0  0
 41129  1  0  0  0  0
 42 43  2  0  0  0  0
 42 44  1  0  0  0  0
 44 45  2  0  0  0  0
 44 82  1  0  0  0  0
 45 46  1  0  0  0  0
 45130  1  0  0  0  0
 46 47  2  0  0  0  0
 46131  1  0  0  0  0
 47 48  1  0  0  0  0
 47 79  1  0  0  0  0
 48 49  1  0  0  0  0
 48132  1  0  0  0  0
 49 50  2  0  0  0  0
 49 51  1  0  0  0  0
 51 52  1  0  0  0  0
 51 70  1  0  0  0  0
 51133  1  0  0  0  0
 52 53  1  0  0  0  0
 52134  1  0  0  0  0
 53 54  1  0  0  0  0
 53 59  1  0  0  0  0
 53135  1  0  0  0  0
 54 55  1  0  0  0  0
 54136  1  0  0  0  0
 54137  1  0  0  0  0
 55 56  1  0  0  0  0
 55 57  1  0  0  0  0
 55 58  1  0  0  0  0
 56138  1  0  0  0  0
 56139  1  0  0  0  0
 56140  1  0  0  0  0
 57141  1  0  0  0  0
 57142  1  0  0  0  0
 57143  1  0  0  0  0
 58144  1  0  0  0  0
 58145  1  0  0  0  0
 58146  1  0  0  0  0
 59 60  1  0  0  0  0
 59 62  1  0  0  0  0
 59 70  1  0  0  0  0
 60 61  3  0  0  0  0
 62 63  1  0  0  0  0
 62 68  2  0  0  0  0
 63 64  2  0  0  0  0
 63147  1  0  0  0  0
 64 65  1  0  0  0  0
 64148  1  0  0  0  0
 65 66  1  0  0  0  0
 65 67  2  0  0  0  0
 67 68  1  0  0  0  0
 67149  1  0  0  0  0
 68 69  1  0  0  0  0
 70 71  1  0  0  0  0
 70150  1  0  0  0  0
 71 72  1  0  0  0  0
 71 77  2  0  0  0  0
 72 73  2  0  0  0  0
 72151  1  0  0  0  0
 73 74  1  0  0  0  0
 73152  1  0  0  0  0
 74 75  2  0  0  0  0
 74153  1  0  0  0  0
 75 76  1  0  0  0  0
 75 77  1  0  0  0  0
 77 78  1  0  0  0  0
 79 80  1  0  0  0  0
 79 82  2  0  0  0  0
 80 81  1  0  0  0  0
 81154  1  0  0  0  0
 81155  1  0  0  0  0
 81156  1  0  0  0  0
 82157  1  0  0  0  0
 83 84  1  0  0  0  0
 83158  1  0  0  0  0
 83159  1  0  0  0  0
 84160  1  0  0  0  0
 84161  1  0  0  0  0
 85 86  1  0  0  0  0
 85162  1  0  0  0  0
 86 87  1  0  0  0  0
 87 88  1  0  0  0  0
 88163  1  0  0  0  0
 88164  1  0  0  0  0
 88165  1  0  0  0  0
 89 90  2  0  0  0  0
 91166  1  0  0  0  0
M  END
>  <Compound ID>
578

>  <Uniprot>
P00533

>  <Target>
EGFR L858R/T790M

>  <E3 ligase>
MDM2

>  <DC50 (nM)>
77

>  <Assay (DC50/Dmax)>
Degradation of EGFR L858R/T790M in H1975 cells after 16h treatment

>  <Article DOI>
10.1016/j.ejmech.2020.112199

>  <Molecular Weight>
1279.3311

>  <Exact Mass>
1277.5197

>  <XLogP3>
11.88

>  <Heavy Atom Count>
91

>  <Ring Count>
9

>  <Hydrogen Bond Acceptor Count>
14

>  <Hydrogen Bond Donor Count>
5

>  <Rotatable Bond Count>
24

>  <Topological Polar Surface Area>
224.94

>  <Molecular Formula>
C69H75Cl2F2N11O7

>  <InChI>
InChI=1S/C69H75Cl2F2N11O7/c1-8-58(85)77-45-18-16-19-47(37-45)84-60(87)34-42(2)49-40-76-67(81-64(49)84)79-54-28-25-46(38-56(54)91-7)82-30-32-83(33-31-82)59(86)22-14-12-10-9-11-13-15-29-75-65(88)43-23-27-53(55(35-43)90-6)78-66(89)63-61(48-20-17-21-51(71)62(48)73)69(41-74,57(80-63)39-68(3,4)5)50-26-24-44(70)36-52(50)72/h8,16-21,23-28,34-38,40,57,61,63,80H,1,9-15,22,29-33,39H2,2-7H3,(H,75,88)(H,77,85)(H,78,89)(H,76,79,81)/t57-,61-,63+,69-/m0/s1

>  <InChI Key>
GDBFIWQFEZVSAL-RBRUZKMXSA-N

$$$$
579
  MOE2018           3D

160168  0  0  1  0  0  0  0  0999 V2000
   39.1460   11.2760    3.1340 C   0  0  0  0  0  0  0  0  0  0  0  0
   39.1830   12.5690    2.7480 C   0  0  0  0  0  0  0  0  0  0  0  0
   38.4410   13.0940    1.6080 C   0  0  0  0  0  0  0  0  0  0  0  0
   37.7230   12.4040    0.9010 O   0  0  0  0  0  0  0  0  0  0  0  0
   38.5700   14.4410    1.3560 N   0  0  0  0  0  0  0  0  0  0  0  0
   38.0170   15.1750    0.2800 C   0  0  0  0  0  0  0  0  0  0  0  0
   37.8350   14.6120   -0.9900 C   0  0  0  0  0  0  0  0  0  0  0  0
   37.3120   15.3880   -2.0230 C   0  0  0  0  0  0  0  0  0  0  0  0
   36.9770   16.7210   -1.7970 C   0  0  0  0  0  0  0  0  0  0  0  0
   37.1720   17.2660   -0.5260 C   0  0  0  0  0  0  0  0  0  0  0  0
   36.8240   18.6310   -0.2970 N   0  0  0  0  0  0  0  0  0  0  0  0
   37.8290   19.6000   -0.2670 C   0  0  0  0  0  0  0  0  0  0  0  0
   39.0040   19.2370   -0.3290 O   0  0  0  0  0  0  0  0  0  0  0  0
   37.4510   20.9840   -0.1660 C   0  0  0  0  0  0  0  0  0  0  0  0
   36.1530   21.3730   -0.0490 C   0  0  0  0  0  0  0  0  0  0  0  0
   35.8010   22.8480    0.0470 C   0  0  0  0  0  0  0  0  0  0  0  0
   35.1270   20.3600   -0.0130 C   0  0  0  0  0  0  0  0  0  0  0  0
   33.7620   20.6310    0.1390 C   0  0  0  0  0  0  0  0  0  0  0  0
   32.8790   19.6600    0.1750 N   0  0  0  0  0  0  0  0  0  0  0  0
   33.3120   18.3890    0.0610 C   0  0  0  0  0  0  0  0  0  0  0  0
   32.4370   17.3480    0.0750 N   0  0  0  0  0  0  0  0  0  0  0  0
   31.0180   17.3770    0.0180 C   0  0  0  0  0  0  0  0  0  0  0  0
   30.2670   18.2880    0.7630 C   0  0  0  0  0  0  0  0  0  0  0  0
   28.8780   18.2810    0.6680 C   0  0  0  0  0  0  0  0  0  0  0  0
   28.2340   17.3570   -0.1700 C   0  0  0  0  0  0  0  0  0  0  0  0
   26.8250   17.3350   -0.3180 N   0  0  0  0  0  0  0  0  0  0  0  0
   26.1740   16.0830    0.1560 C   0  0  0  0  0  0  0  0  0  0  0  0
   24.8030   15.9750   -0.5540 C   0  0  0  0  0  0  0  0  0  0  0  0
   24.0100   17.1930   -0.2180 N   0  0  0  0  0  0  0  0  0  0  0  0
   22.7360   17.0790    0.2130 C   0  0  0  0  0  0  0  0  0  0  0  0
   22.2400   15.9810    0.4450 O   0  0  0  0  0  0  0  0  0  0  0  0
   21.8940   18.3460    0.4240 C   0  0  0  0  0  0  0  0  0  0  0  0
   20.4070   18.0870    0.7300 C   0  0  0  0  0  0  0  0  0  0  0  0
   19.6610   19.4090    0.9640 C   0  0  0  0  0  0  0  0  0  0  0  0
   18.1470   19.1770    1.0620 C   0  0  0  0  0  0  0  0  0  0  0  0
   17.4210   20.4980    1.3540 C   0  0  0  0  0  0  0  0  0  0  0  0
   15.8990   20.3240    1.2420 C   0  0  0  0  0  0  0  0  0  0  0  0
   15.1840   21.6340    1.5880 C   0  0  0  0  0  0  0  0  0  0  0  0
   13.7820   21.4100    1.2520 N   0  0  0  0  0  0  0  0  0  0  0  0
   12.8640   22.4280    1.2430 C   0  0  0  0  0  0  0  0  0  0  0  0
   13.2540   23.5380    1.5830 O   0  0  0  0  0  0  0  0  0  0  0  0
   11.4850   22.1500    0.8390 C   0  0  0  0  0  0  0  0  0  0  0  0
   10.4360   22.9280    1.3570 C   0  0  0  0  0  0  0  0  0  0  0  0
    9.1170   22.6980    0.9820 C   0  0  0  0  0  0  0  0  0  0  0  0
    8.8260   21.6760    0.0730 C   0  0  0  0  0  0  0  0  0  0  0  0
    7.5200   21.3780   -0.3890 N   0  0  0  0  0  0  0  0  0  0  0  0
    6.2950   21.7440    0.1110 C   0  0  0  0  0  0  0  0  0  0  0  0
    6.2070   22.4190    1.1190 O   0  0  0  0  0  0  0  0  0  0  0  0
    5.0670   21.2950   -0.7060 C   0  0  2  0  0  0  0  0  0  0  0  0
    4.5000   22.4340   -1.4670 N   0  0  0  0  0  0  0  0  0  0  0  0
    3.5980   23.1190   -0.5210 C   0  0  1  0  0  0  0  0  0  0  0  0
    2.7440   24.2100   -1.2110 C   0  0  0  0  0  0  0  0  0  0  0  0
    3.4180   25.5870   -1.4350 C   0  0  0  0  0  0  0  0  0  0  0  0
    4.7140   25.4880   -2.2550 C   0  0  0  0  0  0  0  0  0  0  0  0
    2.4260   26.4640   -2.2170 C   0  0  0  0  0  0  0  0  0  0  0  0
    3.7280   26.2990   -0.1090 C   0  0  0  0  0  0  0  0  0  0  0  0
    2.7960   21.9340    0.1070 C   0  0  2  0  0  0  0  0  0  0  0  0
    1.7060   21.5500   -0.8430 C   0  0  0  0  0  0  0  0  0  0  0  0
    0.8720   21.2760   -1.5670 N   0  0  0  0  0  0  0  0  0  0  0  0
    2.1760   22.2570    1.4970 C   0  0  0  0  0  0  0  0  0  0  0  0
    2.4080   23.4680    2.1730 C   0  0  0  0  0  0  0  0  0  0  0  0
    1.8430   23.7130    3.4230 C   0  0  0  0  0  0  0  0  0  0  0  0
    1.0330   22.7560    4.0350 C   0  0  0  0  0  0  0  0  0  0  0  0
    0.3390   23.0740    5.5880 Cl  0  0  0  0  0  0  0  0  0  0  0  0
    0.7850   21.5480    3.3940 C   0  0  0  0  0  0  0  0  0  0  0  0
    1.3560   21.3240    2.1500 C   0  0  0  0  0  0  0  0  0  0  0  0
    1.0760   20.1340    1.5830 F   0  0  0  0  0  0  0  0  0  0  0  0
    3.9230   20.8460    0.2560 C   0  0  1  0  0  0  0  0  0  0  0  0
    3.5260   19.3980   -0.0990 C   0  0  0  0  0  0  0  0  0  0  0  0
    3.2570   19.0050   -1.4170 C   0  0  0  0  0  0  0  0  0  0  0  0
    2.9110   17.6870   -1.7130 C   0  0  0  0  0  0  0  0  0  0  0  0
    2.8320   16.7300   -0.7050 C   0  0  0  0  0  0  0  0  0  0  0  0
    3.1030   17.0910    0.6140 C   0  0  0  0  0  0  0  0  0  0  0  0
    3.0110   15.8940    1.8640 Cl  0  0  0  0  0  0  0  0  0  0  0  0
    3.4500   18.4170    0.8940 C   0  0  0  0  0  0  0  0  0  0  0  0
    3.7290   18.7440    2.1800 F   0  0  0  0  0  0  0  0  0  0  0  0
    9.8670   20.9010   -0.4620 C   0  0  0  0  0  0  0  0  0  0  0  0
    9.5390   19.9110   -1.3900 O   0  0  0  0  0  0  0  0  0  0  0  0
   10.4910   19.0510   -2.0630 C   0  0  0  0  0  0  0  0  0  0  0  0
   11.1860   21.1310   -0.0810 C   0  0  0  0  0  0  0  0  0  0  0  0
   24.6790   18.4710   -0.5950 C   0  0  0  0  0  0  0  0  0  0  0  0
   26.0510   18.5230    0.1170 C   0  0  0  0  0  0  0  0  0  0  0  0
   28.9840   16.4310   -0.9010 C   0  0  0  0  0  0  0  0  0  0  0  0
   30.3730   16.4370   -0.7980 C   0  0  0  0  0  0  0  0  0  0  0  0
   31.1600   15.5220   -1.4970 O   0  0  0  0  0  0  0  0  0  0  0  0
   30.6520   14.5480   -2.4350 C   0  0  0  0  0  0  0  0  0  0  0  0
   34.5710   18.0310   -0.0880 N   0  0  0  0  0  0  0  0  0  0  0  0
   35.4790   19.0030   -0.1300 C   0  0  0  0  0  0  0  0  0  0  0  0
   37.6910   16.5090    0.5210 C   0  0  0  0  0  0  0  0  0  0  0  0
   38.5420   10.5660    2.5880 H   0  0  0  0  0  0  0  0  0  0  0  0
   39.7200   10.9510    3.9890 H   0  0  0  0  0  0  0  0  0  0  0  0
   39.7970   13.2530    3.3150 H   0  0  0  0  0  0  0  0  0  0  0  0
   39.1240   14.9670    2.0160 H   0  0  0  0  0  0  0  0  0  0  0  0
   38.0990   13.5800   -1.1680 H   0  0  0  0  0  0  0  0  0  0  0  0
   37.1660   14.9550   -3.0010 H   0  0  0  0  0  0  0  0  0  0  0  0
   36.5710   17.3260   -2.5950 H   0  0  0  0  0  0  0  0  0  0  0  0
   38.2230   21.7390   -0.1840 H   0  0  0  0  0  0  0  0  0  0  0  0
   34.7200   22.9590    0.1340 H   0  0  0  0  0  0  0  0  0  0  0  0
   36.1480   23.3630   -0.8490 H   0  0  0  0  0  0  0  0  0  0  0  0
   36.2830   23.2800    0.9240 H   0  0  0  0  0  0  0  0  0  0  0  0
   33.4300   21.6550    0.2280 H   0  0  0  0  0  0  0  0  0  0  0  0
   32.8530   16.4290    0.1340 H   0  0  0  0  0  0  0  0  0  0  0  0
   30.7620   18.9960    1.4110 H   0  0  0  0  0  0  0  0  0  0  0  0
   28.2950   18.9880    1.2400 H   0  0  0  0  0  0  0  0  0  0  0  0
   26.7930   15.2220   -0.0970 H   0  0  0  0  0  0  0  0  0  0  0  0
   26.0320   16.1230    1.2360 H   0  0  0  0  0  0  0  0  0  0  0  0
   24.2770   15.0850   -0.2090 H   0  0  0  0  0  0  0  0  0  0  0  0
   24.9490   15.9150   -1.6320 H   0  0  0  0  0  0  0  0  0  0  0  0
   22.3210   18.9020    1.2590 H   0  0  0  0  0  0  0  0  0  0  0  0
   21.9540   18.9480   -0.4820 H   0  0  0  0  0  0  0  0  0  0  0  0
   19.9540   17.5650   -0.1130 H   0  0  0  0  0  0  0  0  0  0  0  0
   20.3280   17.4690    1.6240 H   0  0  0  0  0  0  0  0  0  0  0  0
   20.0140   19.8580    1.8930 H   0  0  0  0  0  0  0  0  0  0  0  0
   19.8650   20.0850    0.1340 H   0  0  0  0  0  0  0  0  0  0  0  0
   17.9430   18.4700    1.8660 H   0  0  0  0  0  0  0  0  0  0  0  0
   17.7840   18.7690    0.1190 H   0  0  0  0  0  0  0  0  0  0  0  0
   17.7480   21.2510    0.6370 H   0  0  0  0  0  0  0  0  0  0  0  0
   17.6690   20.8260    2.3630 H   0  0  0  0  0  0  0  0  0  0  0  0
   15.5750   19.5450    1.9320 H   0  0  0  0  0  0  0  0  0  0  0  0
   15.6450   20.0350    0.2220 H   0  0  0  0  0  0  0  0  0  0  0  0
   15.5900   22.4570    1.0000 H   0  0  0  0  0  0  0  0  0  0  0  0
   15.2910   21.8580    2.6490 H   0  0  0  0  0  0  0  0  0  0  0  0
   13.4780   20.4750    1.0190 H   0  0  0  0  0  0  0  0  0  0  0  0
   10.6580   23.7180    2.0590 H   0  0  0  0  0  0  0  0  0  0  0  0
    8.3220   23.3050    1.3900 H   0  0  0  0  0  0  0  0  0  0  0  0
    7.4850   20.8040   -1.2190 H   0  0  0  0  0  0  0  0  0  0  0  0
    5.3990   20.4920   -1.3640 H   0  0  0  0  0  0  0  0  0  0  0  0
    5.2340   23.0570   -1.7710 H   0  0  0  0  0  0  0  0  0  0  0  0
    4.1070   23.7000    0.2480 H   0  0  0  0  0  0  0  0  0  0  0  0
    2.4450   23.8270   -2.1870 H   0  0  0  0  0  0  0  0  0  0  0  0
    1.8580   24.3720   -0.5970 H   0  0  0  0  0  0  0  0  0  0  0  0
    5.1420   26.4830   -2.3800 H   0  0  0  0  0  0  0  0  0  0  0  0
    4.4930   25.0620   -3.2340 H   0  0  0  0  0  0  0  0  0  0  0  0
    5.4260   24.8490   -1.7330 H   0  0  0  0  0  0  0  0  0  0  0  0
    2.8690   27.4440   -2.3930 H   0  0  0  0  0  0  0  0  0  0  0  0
    1.5080   26.5780   -1.6400 H   0  0  0  0  0  0  0  0  0  0  0  0
    2.1980   25.9910   -3.1720 H   0  0  0  0  0  0  0  0  0  0  0  0
    4.2000   27.2600   -0.3140 H   0  0  0  0  0  0  0  0  0  0  0  0
    4.4030   25.6830    0.4850 H   0  0  0  0  0  0  0  0  0  0  0  0
    2.8020   26.4590    0.4430 H   0  0  0  0  0  0  0  0  0  0  0  0
    3.0340   24.2200    1.7160 H   0  0  0  0  0  0  0  0  0  0  0  0
    2.0340   24.6520    3.9220 H   0  0  0  0  0  0  0  0  0  0  0  0
    0.1600   20.7980    3.8560 H   0  0  0  0  0  0  0  0  0  0  0  0
    4.1930   20.8000    1.3110 H   0  0  0  0  0  0  0  0  0  0  0  0
    3.3180   19.7320   -2.2130 H   0  0  0  0  0  0  0  0  0  0  0  0
    2.7020   17.4060   -2.7350 H   0  0  0  0  0  0  0  0  0  0  0  0
    2.5620   15.7120   -0.9440 H   0  0  0  0  0  0  0  0  0  0  0  0
    9.9590   18.3730   -2.7310 H   0  0  0  0  0  0  0  0  0  0  0  0
   11.0440   18.4720   -1.3230 H   0  0  0  0  0  0  0  0  0  0  0  0
   11.1860   19.6600   -2.6410 H   0  0  0  0  0  0  0  0  0  0  0  0
   11.9800   20.5260   -0.4930 H   0  0  0  0  0  0  0  0  0  0  0  0
   24.8210   18.5090   -1.6750 H   0  0  0  0  0  0  0  0  0  0  0  0
   24.0670   19.3160   -0.2790 H   0  0  0  0  0  0  0  0  0  0  0  0
   25.9100   18.5000    1.1980 H   0  0  0  0  0  0  0  0  0  0  0  0
   26.5800   19.4340   -0.1610 H   0  0  0  0  0  0  0  0  0  0  0  0
   28.4900   15.7160   -1.5410 H   0  0  0  0  0  0  0  0  0  0  0  0
   31.4800   13.9630   -2.8350 H   0  0  0  0  0  0  0  0  0  0  0  0
   30.1420   15.0610   -3.2500 H   0  0  0  0  0  0  0  0  0  0  0  0
   29.9510   13.8860   -1.9270 H   0  0  0  0  0  0  0  0  0  0  0  0
   37.8380   16.9450    1.4980 H   0  0  0  0  0  0  0  0  0  0  0  0
  1  2  2  0  0  0  0
  1 90  1  0  0  0  0
  1 91  1  0  0  0  0
  2  3  1  0  0  0  0
  2 92  1  0  0  0  0
  3  4  2  0  0  0  0
  3  5  1  0  0  0  0
  5  6  1  0  0  0  0
  5 93  1  0  0  0  0
  6  7  1  0  0  0  0
  6 89  2  0  0  0  0
  7  8  2  0  0  0  0
  7 94  1  0  0  0  0
  8  9  1  0  0  0  0
  8 95  1  0  0  0  0
  9 10  2  0  0  0  0
  9 96  1  0  0  0  0
 10 11  1  0  0  0  0
 10 89  1  0  0  0  0
 11 12  1  0  0  0  0
 11 88  1  0  0  0  0
 12 13  2  0  0  0  0
 12 14  1  0  0  0  0
 14 15  2  0  0  0  0
 14 97  1  0  0  0  0
 15 16  1  0  0  0  0
 15 17  1  0  0  0  0
 16 98  1  0  0  0  0
 16 99  1  0  0  0  0
 16100  1  0  0  0  0
 17 18  2  0  0  0  0
 17 88  1  0  0  0  0
 18 19  1  0  0  0  0
 18101  1  0  0  0  0
 19 20  2  0  0  0  0
 20 21  1  0  0  0  0
 20 87  1  0  0  0  0
 21 22  1  0  0  0  0
 21102  1  0  0  0  0
 22 23  1  0  0  0  0
 22 84  2  0  0  0  0
 23 24  2  0  0  0  0
 23103  1  0  0  0  0
 24 25  1  0  0  0  0
 24104  1  0  0  0  0
 25 26  1  0  0  0  0
 25 83  2  0  0  0  0
 26 27  1  0  0  0  0
 26 82  1  0  0  0  0
 27 28  1  0  0  0  0
 27105  1  0  0  0  0
 27106  1  0  0  0  0
 28 29  1  0  0  0  0
 28107  1  0  0  0  0
 28108  1  0  0  0  0
 29 30  1  0  0  0  0
 29 81  1  0  0  0  0
 30 31  2  0  0  0  0
 30 32  1  0  0  0  0
 32 33  1  0  0  0  0
 32109  1  0  0  0  0
 32110  1  0  0  0  0
 33 34  1  0  0  0  0
 33111  1  0  0  0  0
 33112  1  0  0  0  0
 34 35  1  0  0  0  0
 34113  1  0  0  0  0
 34114  1  0  0  0  0
 35 36  1  0  0  0  0
 35115  1  0  0  0  0
 35116  1  0  0  0  0
 36 37  1  0  0  0  0
 36117  1  0  0  0  0
 36118  1  0  0  0  0
 37 38  1  0  0  0  0
 37119  1  0  0  0  0
 37120  1  0  0  0  0
 38 39  1  0  0  0  0
 38121  1  0  0  0  0
 38122  1  0  0  0  0
 39 40  1  0  0  0  0
 39123  1  0  0  0  0
 40 41  2  0  0  0  0
 40 42  1  0  0  0  0
 42 43  2  0  0  0  0
 42 80  1  0  0  0  0
 43 44  1  0  0  0  0
 43124  1  0  0  0  0
 44 45  2  0  0  0  0
 44125  1  0  0  0  0
 45 46  1  0  0  0  0
 45 77  1  0  0  0  0
 46 47  1  0  0  0  0
 46126  1  0  0  0  0
 47 48  2  0  0  0  0
 47 49  1  0  0  0  0
 49 50  1  0  0  0  0
 49 68  1  0  0  0  0
 49127  1  0  0  0  0
 50 51  1  0  0  0  0
 50128  1  0  0  0  0
 51 52  1  0  0  0  0
 51 57  1  0  0  0  0
 51129  1  0  0  0  0
 52 53  1  0  0  0  0
 52130  1  0  0  0  0
 52131  1  0  0  0  0
 53 54  1  0  0  0  0
 53 55  1  0  0  0  0
 53 56  1  0  0  0  0
 54132  1  0  0  0  0
 54133  1  0  0  0  0
 54134  1  0  0  0  0
 55135  1  0  0  0  0
 55136  1  0  0  0  0
 55137  1  0  0  0  0
 56138  1  0  0  0  0
 56139  1  0  0  0  0
 56140  1  0  0  0  0
 57 58  1  0  0  0  0
 57 60  1  0  0  0  0
 57 68  1  0  0  0  0
 58 59  3  0  0  0  0
 60 61  1  0  0  0  0
 60 66  2  0  0  0  0
 61 62  2  0  0  0  0
 61141  1  0  0  0  0
 62 63  1  0  0  0  0
 62142  1  0  0  0  0
 63 64  1  0  0  0  0
 63 65  2  0  0  0  0
 65 66  1  0  0  0  0
 65143  1  0  0  0  0
 66 67  1  0  0  0  0
 68 69  1  0  0  0  0
 68144  1  0  0  0  0
 69 70  1  0  0  0  0
 69 75  2  0  0  0  0
 70 71  2  0  0  0  0
 70145  1  0  0  0  0
 71 72  1  0  0  0  0
 71146  1  0  0  0  0
 72 73  2  0  0  0  0
 72147  1  0  0  0  0
 73 74  1  0  0  0  0
 73 75  1  0  0  0  0
 75 76  1  0  0  0  0
 77 78  1  0  0  0  0
 77 80  2  0  0  0  0
 78 79  1  0  0  0  0
 79148  1  0  0  0  0
 79149  1  0  0  0  0
 79150  1  0  0  0  0
 80151  1  0  0  0  0
 81 82  1  0  0  0  0
 81152  1  0  0  0  0
 81153  1  0  0  0  0
 82154  1  0  0  0  0
 82155  1  0  0  0  0
 83 84  1  0  0  0  0
 83156  1  0  0  0  0
 84 85  1  0  0  0  0
 85 86  1  0  0  0  0
 86157  1  0  0  0  0
 86158  1  0  0  0  0
 86159  1  0  0  0  0
 87 88  2  0  0  0  0
 89160  1  0  0  0  0
M  END
>  <Compound ID>
579

>  <Uniprot>
P00533

>  <Target>
EGFR L858R/T790M

>  <E3 ligase>
MDM2

>  <DC50 (nM)>
>2000

>  <Assay (DC50/Dmax)>
Degradation of EGFR L858R/T790M in H1975 cells after 16h treatment

>  <Article DOI>
10.1016/j.ejmech.2020.112199

>  <Molecular Weight>
1251.277

>  <Exact Mass>
1249.4883

>  <XLogP3>
10.79

>  <Heavy Atom Count>
89

>  <Ring Count>
9

>  <Hydrogen Bond Acceptor Count>
14

>  <Hydrogen Bond Donor Count>
5

>  <Rotatable Bond Count>
22

>  <Topological Polar Surface Area>
224.94

>  <Molecular Formula>
C67H71Cl2F2N11O7

>  <InChI>
InChI=1S/C67H71Cl2F2N11O7/c1-8-56(83)75-43-16-14-17-45(35-43)82-58(85)32-40(2)47-38-74-65(79-62(47)82)77-52-26-23-44(36-54(52)89-7)80-28-30-81(31-29-80)57(84)20-12-10-9-11-13-27-73-63(86)41-21-25-51(53(33-41)88-6)76-64(87)61-59(46-18-15-19-49(69)60(46)71)67(39-72,55(78-61)37-66(3,4)5)48-24-22-42(68)34-50(48)70/h8,14-19,21-26,32-36,38,55,59,61,78H,1,9-13,20,27-31,37H2,2-7H3,(H,73,86)(H,75,83)(H,76,87)(H,74,77,79)/t55-,59-,61+,67-/m0/s1

>  <InChI Key>
GGZIIUYEYTZDCD-ASJDMNHUSA-N

$$$$
580
  MOE2018           3D

154162  0  0  1  0  0  0  0  0999 V2000
   29.7620   11.0110   -0.1040 C   0  0  0  0  0  0  0  0  0  0  0  0
   30.3180   12.2170   -0.3540 C   0  0  0  0  0  0  0  0  0  0  0  0
   31.1800   12.4860   -1.5020 C   0  0  0  0  0  0  0  0  0  0  0  0
   31.3910   11.6850   -2.3970 O   0  0  0  0  0  0  0  0  0  0  0  0
   31.8030   13.6880   -1.6620 N   0  0  0  0  0  0  0  0  0  0  0  0
   31.8720   14.7280   -0.7180 C   0  0  0  0  0  0  0  0  0  0  0  0
   32.3710   14.4780    0.5650 C   0  0  0  0  0  0  0  0  0  0  0  0
   32.4310   15.5160    1.4930 C   0  0  0  0  0  0  0  0  0  0  0  0
   31.9980   16.7930    1.1430 C   0  0  0  0  0  0  0  0  0  0  0  0
   31.5110   17.0190   -0.1470 C   0  0  0  0  0  0  0  0  0  0  0  0
   31.0600   18.3260   -0.4980 N   0  0  0  0  0  0  0  0  0  0  0  0
   31.9990   19.3210   -0.7800 C   0  0  0  0  0  0  0  0  0  0  0  0
   33.1920   19.0220   -0.7910 O   0  0  0  0  0  0  0  0  0  0  0  0
   31.5320   20.6560   -1.0430 C   0  0  0  0  0  0  0  0  0  0  0  0
   30.2100   20.9730   -1.0470 C   0  0  0  0  0  0  0  0  0  0  0  0
   29.7630   22.3980   -1.3260 C   0  0  0  0  0  0  0  0  0  0  0  0
   29.2480   19.9310   -0.7870 C   0  0  0  0  0  0  0  0  0  0  0  0
   27.8620   20.1320   -0.7720 C   0  0  0  0  0  0  0  0  0  0  0  0
   27.0370   19.1360   -0.5480 N   0  0  0  0  0  0  0  0  0  0  0  0
   27.5450   17.9080   -0.3320 C   0  0  0  0  0  0  0  0  0  0  0  0
   26.7380   16.8370   -0.1000 N   0  0  0  0  0  0  0  0  0  0  0  0
   25.3350   16.7300    0.1240 C   0  0  0  0  0  0  0  0  0  0  0  0
   24.4060   17.6560   -0.3600 C   0  0  0  0  0  0  0  0  0  0  0  0
   23.0530   17.4920   -0.0760 C   0  0  0  0  0  0  0  0  0  0  0  0
   22.6200   16.3950    0.6810 C   0  0  0  0  0  0  0  0  0  0  0  0
   21.2600   16.2040    1.0130 N   0  0  0  0  0  0  0  0  0  0  0  0
   20.3920   17.4090    1.0540 C   0  0  0  0  0  0  0  0  0  0  0  0
   19.1340   17.0350    1.8660 C   0  0  0  0  0  0  0  0  0  0  0  0
   18.4630   15.8990    1.1700 N   0  0  0  0  0  0  0  0  0  0  0  0
   17.1460   15.9610    0.8840 C   0  0  0  0  0  0  0  0  0  0  0  0
   16.5110   16.9970    1.0570 O   0  0  0  0  0  0  0  0  0  0  0  0
   16.4220   14.7190    0.3420 C   0  0  0  0  0  0  0  0  0  0  0  0
   14.8910   14.8760    0.2560 C   0  0  0  0  0  0  0  0  0  0  0  0
   14.2070   13.5960   -0.2480 C   0  0  0  0  0  0  0  0  0  0  0  0
   12.6800   13.7620   -0.2080 C   0  0  0  0  0  0  0  0  0  0  0  0
   11.9680   12.4990   -0.7020 C   0  0  0  0  0  0  0  0  0  0  0  0
   10.5430   12.7560   -0.4820 N   0  0  0  0  0  0  0  0  0  0  0  0
    9.6840   13.1720   -1.4680 C   0  0  0  0  0  0  0  0  0  0  0  0
   10.1200   13.2420   -2.6100 O   0  0  0  0  0  0  0  0  0  0  0  0
    8.3120   13.5320   -1.1060 C   0  0  0  0  0  0  0  0  0  0  0  0
    7.6000   14.4520   -1.8950 C   0  0  0  0  0  0  0  0  0  0  0  0
    6.3070   14.8420   -1.5590 C   0  0  0  0  0  0  0  0  0  0  0  0
    5.6990   14.3010   -0.4220 C   0  0  0  0  0  0  0  0  0  0  0  0
    4.4020   14.6510    0.0220 N   0  0  0  0  0  0  0  0  0  0  0  0
    3.3920   15.3370   -0.6020 C   0  0  0  0  0  0  0  0  0  0  0  0
    3.5060   15.7290   -1.7460 O   0  0  0  0  0  0  0  0  0  0  0  0
    2.1190   15.4940    0.2430 C   0  0  2  0  0  0  0  0  0  0  0  0
    1.5500   14.1510    0.6250 N   0  0  0  0  0  0  0  0  0  0  0  0
    0.1500   14.0810    0.1330 C   0  0  1  0  0  0  0  0  0  0  0  0
   -0.7530   13.2030    1.0290 C   0  0  0  0  0  0  0  0  0  0  0  0
   -0.7790   11.6920    0.7000 C   0  0  0  0  0  0  0  0  0  0  0  0
   -1.4430   11.4260   -0.6620 C   0  0  0  0  0  0  0  0  0  0  0  0
   -1.6220   10.9940    1.7790 C   0  0  0  0  0  0  0  0  0  0  0  0
    0.6230   11.0640    0.7090 C   0  0  0  0  0  0  0  0  0  0  0  0
   -0.3000   15.5690    0.0450 C   0  0  2  0  0  0  0  0  0  0  0  0
   -0.5320   16.0860    1.4300 C   0  0  0  0  0  0  0  0  0  0  0  0
   -0.7360   16.4810    2.4770 N   0  0  0  0  0  0  0  0  0  0  0  0
   -1.5530   15.7820   -0.8690 C   0  0  0  0  0  0  0  0  0  0  0  0
   -2.6810   16.4940   -0.4160 C   0  0  0  0  0  0  0  0  0  0  0  0
   -3.7940   16.6820   -1.2330 C   0  0  0  0  0  0  0  0  0  0  0  0
   -3.8160   16.1690   -2.5290 C   0  0  0  0  0  0  0  0  0  0  0  0
   -5.2040   16.4100   -3.5350 Cl  0  0  0  0  0  0  0  0  0  0  0  0
   -2.7180   15.4680   -3.0120 C   0  0  0  0  0  0  0  0  0  0  0  0
   -1.6190   15.2920   -2.1860 C   0  0  0  0  0  0  0  0  0  0  0  0
   -0.5920   14.6200   -2.7400 F   0  0  0  0  0  0  0  0  0  0  0  0
    0.9810   16.2030   -0.5490 C   0  0  1  0  0  0  0  0  0  0  0  0
    0.9570   17.7460   -0.5610 C   0  0  0  0  0  0  0  0  0  0  0  0
    0.4540   18.3470   -1.7220 C   0  0  0  0  0  0  0  0  0  0  0  0
    0.3730   19.7340   -1.8390 C   0  0  0  0  0  0  0  0  0  0  0  0
    0.7940   20.5580   -0.8010 C   0  0  0  0  0  0  0  0  0  0  0  0
    1.3020   19.9920    0.3660 C   0  0  0  0  0  0  0  0  0  0  0  0
    1.8280   21.0300    1.6520 Cl  0  0  0  0  0  0  0  0  0  0  0  0
    1.3760   18.5990    0.4700 C   0  0  0  0  0  0  0  0  0  0  0  0
    1.8690   18.1060    1.6190 F   0  0  0  0  0  0  0  0  0  0  0  0
    6.3920   13.3690    0.3650 C   0  0  0  0  0  0  0  0  0  0  0  0
    5.7480   12.8500    1.4880 O   0  0  0  0  0  0  0  0  0  0  0  0
    6.2790   11.8260    2.3630 C   0  0  0  0  0  0  0  0  0  0  0  0
    7.6850   12.9820    0.0270 C   0  0  0  0  0  0  0  0  0  0  0  0
   19.3280   14.6940    1.0090 C   0  0  0  0  0  0  0  0  0  0  0  0
   20.6080   15.1170    0.2420 C   0  0  0  0  0  0  0  0  0  0  0  0
   23.5390   15.4490    1.1400 C   0  0  0  0  0  0  0  0  0  0  0  0
   24.8930   15.6170    0.8570 C   0  0  0  0  0  0  0  0  0  0  0  0
   25.8470   14.6930    1.2910 O   0  0  0  0  0  0  0  0  0  0  0  0
   25.5580   13.5400    2.1120 C   0  0  0  0  0  0  0  0  0  0  0  0
   28.8320   17.6190   -0.3140 N   0  0  0  0  0  0  0  0  0  0  0  0
   29.6850   18.6190   -0.5320 C   0  0  0  0  0  0  0  0  0  0  0  0
   31.4480   15.9990   -1.0930 C   0  0  0  0  0  0  0  0  0  0  0  0
   29.9470   10.1820   -0.7710 H   0  0  0  0  0  0  0  0  0  0  0  0
   29.1330   10.8760    0.7630 H   0  0  0  0  0  0  0  0  0  0  0  0
   30.1140   13.0260    0.3320 H   0  0  0  0  0  0  0  0  0  0  0  0
   32.2610   13.8480   -2.5480 H   0  0  0  0  0  0  0  0  0  0  0  0
   32.7070   13.4880    0.8340 H   0  0  0  0  0  0  0  0  0  0  0  0
   32.8140   15.3300    2.4860 H   0  0  0  0  0  0  0  0  0  0  0  0
   32.0380   17.5990    1.8610 H   0  0  0  0  0  0  0  0  0  0  0  0
   32.2560   21.4320   -1.2440 H   0  0  0  0  0  0  0  0  0  0  0  0
   28.6750   22.4520   -1.2860 H   0  0  0  0  0  0  0  0  0  0  0  0
   30.1050   22.6990   -2.3160 H   0  0  0  0  0  0  0  0  0  0  0  0
   30.1880   23.0650   -0.5760 H   0  0  0  0  0  0  0  0  0  0  0  0
   27.4660   21.1210   -0.9470 H   0  0  0  0  0  0  0  0  0  0  0  0
   27.2250   15.9520   -0.0840 H   0  0  0  0  0  0  0  0  0  0  0  0
   24.7370   18.4960   -0.9520 H   0  0  0  0  0  0  0  0  0  0  0  0
   22.3350   18.2120   -0.4400 H   0  0  0  0  0  0  0  0  0  0  0  0
   20.9180   18.2320    1.5370 H   0  0  0  0  0  0  0  0  0  0  0  0
   20.1110   17.7020    0.0420 H   0  0  0  0  0  0  0  0  0  0  0  0
   18.4590   17.8890    1.9180 H   0  0  0  0  0  0  0  0  0  0  0  0
   19.4190   16.7360    2.8750 H   0  0  0  0  0  0  0  0  0  0  0  0
   16.8020   14.5090   -0.6580 H   0  0  0  0  0  0  0  0  0  0  0  0
   16.6440   13.8780    0.9990 H   0  0  0  0  0  0  0  0  0  0  0  0
   14.5060   15.1140    1.2480 H   0  0  0  0  0  0  0  0  0  0  0  0
   14.6590   15.6920   -0.4290 H   0  0  0  0  0  0  0  0  0  0  0  0
   14.4950   12.7590    0.3880 H   0  0  0  0  0  0  0  0  0  0  0  0
   14.5210   13.3990   -1.2730 H   0  0  0  0  0  0  0  0  0  0  0  0
   12.3980   14.6000   -0.8450 H   0  0  0  0  0  0  0  0  0  0  0  0
   12.3720   13.9650    0.8180 H   0  0  0  0  0  0  0  0  0  0  0  0
   12.2930   11.6280   -0.1320 H   0  0  0  0  0  0  0  0  0  0  0  0
   12.1690   12.3350   -1.7610 H   0  0  0  0  0  0  0  0  0  0  0  0
   10.1720   12.6190    0.4470 H   0  0  0  0  0  0  0  0  0  0  0  0
    8.0650   14.8640   -2.7780 H   0  0  0  0  0  0  0  0  0  0  0  0
    5.7770   15.5570   -2.1720 H   0  0  0  0  0  0  0  0  0  0  0  0
    4.1830   14.3430    0.9590 H   0  0  0  0  0  0  0  0  0  0  0  0
    2.4210   16.0750    1.1140 H   0  0  0  0  0  0  0  0  0  0  0  0
    2.0980   13.4150    0.2020 H   0  0  0  0  0  0  0  0  0  0  0  0
    0.0720   13.5880   -0.8360 H   0  0  0  0  0  0  0  0  0  0  0  0
   -0.4090   13.3140    2.0570 H   0  0  0  0  0  0  0  0  0  0  0  0
   -1.7720   13.5790    0.9440 H   0  0  0  0  0  0  0  0  0  0  0  0
   -1.4450   10.3550   -0.8620 H   0  0  0  0  0  0  0  0  0  0  0  0
   -0.8860   11.9410   -1.4450 H   0  0  0  0  0  0  0  0  0  0  0  0
   -2.4690   11.7940   -0.6440 H   0  0  0  0  0  0  0  0  0  0  0  0
   -1.6600    9.9240    1.5750 H   0  0  0  0  0  0  0  0  0  0  0  0
   -2.6330   11.4020    1.7700 H   0  0  0  0  0  0  0  0  0  0  0  0
   -1.1710   11.1610    2.7570 H   0  0  0  0  0  0  0  0  0  0  0  0
    0.5470   10.0030    0.4720 H   0  0  0  0  0  0  0  0  0  0  0  0
    1.0690   11.1850    1.6960 H   0  0  0  0  0  0  0  0  0  0  0  0
    1.2480   11.5590   -0.0350 H   0  0  0  0  0  0  0  0  0  0  0  0
   -2.6830   16.9020    0.5840 H   0  0  0  0  0  0  0  0  0  0  0  0
   -4.6470   17.2300   -0.8590 H   0  0  0  0  0  0  0  0  0  0  0  0
   -2.7210   15.0670   -4.0150 H   0  0  0  0  0  0  0  0  0  0  0  0
    1.1170   16.0400   -1.6180 H   0  0  0  0  0  0  0  0  0  0  0  0
    0.1230   17.7250   -2.5410 H   0  0  0  0  0  0  0  0  0  0  0  0
   -0.0200   20.1720   -2.7440 H   0  0  0  0  0  0  0  0  0  0  0  0
    0.7270   21.6310   -0.8990 H   0  0  0  0  0  0  0  0  0  0  0  0
    5.5610   11.6180    3.1560 H   0  0  0  0  0  0  0  0  0  0  0  0
    7.2150   12.1730    2.8020 H   0  0  0  0  0  0  0  0  0  0  0  0
    6.4610   10.9170    1.7900 H   0  0  0  0  0  0  0  0  0  0  0  0
    8.2080   12.2590    0.6350 H   0  0  0  0  0  0  0  0  0  0  0  0
   19.5980   14.3000    1.9890 H   0  0  0  0  0  0  0  0  0  0  0  0
   18.7950   13.9290    0.4440 H   0  0  0  0  0  0  0  0  0  0  0  0
   20.3430   15.4750   -0.7530 H   0  0  0  0  0  0  0  0  0  0  0  0
   21.2850   14.2670    0.1540 H   0  0  0  0  0  0  0  0  0  0  0  0
   23.2030   14.5950    1.7090 H   0  0  0  0  0  0  0  0  0  0  0  0
   26.4790   12.9900    2.3030 H   0  0  0  0  0  0  0  0  0  0  0  0
   24.8500   12.8930    1.5940 H   0  0  0  0  0  0  0  0  0  0  0  0
   25.1270   13.8670    3.0580 H   0  0  0  0  0  0  0  0  0  0  0  0
   31.0800   16.1890   -2.0900 H   0  0  0  0  0  0  0  0  0  0  0  0
  1  2  2  0  0  0  0
  1 88  1  0  0  0  0
  1 89  1  0  0  0  0
  2  3  1  0  0  0  0
  2 90  1  0  0  0  0
  3  4  2  0  0  0  0
  3  5  1  0  0  0  0
  5  6  1  0  0  0  0
  5 91  1  0  0  0  0
  6  7  1  0  0  0  0
  6 87  2  0  0  0  0
  7  8  2  0  0  0  0
  7 92  1  0  0  0  0
  8  9  1  0  0  0  0
  8 93  1  0  0  0  0
  9 10  2  0  0  0  0
  9 94  1  0  0  0  0
 10 11  1  0  0  0  0
 10 87  1  0  0  0  0
 11 12  1  0  0  0  0
 11 86  1  0  0  0  0
 12 13  2  0  0  0  0
 12 14  1  0  0  0  0
 14 15  2  0  0  0  0
 14 95  1  0  0  0  0
 15 16  1  0  0  0  0
 15 17  1  0  0  0  0
 16 96  1  0  0  0  0
 16 97  1  0  0  0  0
 16 98  1  0  0  0  0
 17 18  2  0  0  0  0
 17 86  1  0  0  0  0
 18 19  1  0  0  0  0
 18 99  1  0  0  0  0
 19 20  2  0  0  0  0
 20 21  1  0  0  0  0
 20 85  1  0  0  0  0
 21 22  1  0  0  0  0
 21100  1  0  0  0  0
 22 23  1  0  0  0  0
 22 82  2  0  0  0  0
 23 24  2  0  0  0  0
 23101  1  0  0  0  0
 24 25  1  0  0  0  0
 24102  1  0  0  0  0
 25 26  1  0  0  0  0
 25 81  2  0  0  0  0
 26 27  1  0  0  0  0
 26 80  1  0  0  0  0
 27 28  1  0  0  0  0
 27103  1  0  0  0  0
 27104  1  0  0  0  0
 28 29  1  0  0  0  0
 28105  1  0  0  0  0
 28106  1  0  0  0  0
 29 30  1  0  0  0  0
 29 79  1  0  0  0  0
 30 31  2  0  0  0  0
 30 32  1  0  0  0  0
 32 33  1  0  0  0  0
 32107  1  0  0  0  0
 32108  1  0  0  0  0
 33 34  1  0  0  0  0
 33109  1  0  0  0  0
 33110  1  0  0  0  0
 34 35  1  0  0  0  0
 34111  1  0  0  0  0
 34112  1  0  0  0  0
 35 36  1  0  0  0  0
 35113  1  0  0  0  0
 35114  1  0  0  0  0
 36 37  1  0  0  0  0
 36115  1  0  0  0  0
 36116  1  0  0  0  0
 37 38  1  0  0  0  0
 37117  1  0  0  0  0
 38 39  2  0  0  0  0
 38 40  1  0  0  0  0
 40 41  2  0  0  0  0
 40 78  1  0  0  0  0
 41 42  1  0  0  0  0
 41118  1  0  0  0  0
 42 43  2  0  0  0  0
 42119  1  0  0  0  0
 43 44  1  0  0  0  0
 43 75  1  0  0  0  0
 44 45  1  0  0  0  0
 44120  1  0  0  0  0
 45 46  2  0  0  0  0
 45 47  1  0  0  0  0
 47 48  1  0  0  0  0
 47 66  1  0  0  0  0
 47121  1  0  0  0  0
 48 49  1  0  0  0  0
 48122  1  0  0  0  0
 49 50  1  0  0  0  0
 49 55  1  0  0  0  0
 49123  1  0  0  0  0
 50 51  1  0  0  0  0
 50124  1  0  0  0  0
 50125  1  0  0  0  0
 51 52  1  0  0  0  0
 51 53  1  0  0  0  0
 51 54  1  0  0  0  0
 52126  1  0  0  0  0
 52127  1  0  0  0  0
 52128  1  0  0  0  0
 53129  1  0  0  0  0
 53130  1  0  0  0  0
 53131  1  0  0  0  0
 54132  1  0  0  0  0
 54133  1  0  0  0  0
 54134  1  0  0  0  0
 55 56  1  0  0  0  0
 55 58  1  0  0  0  0
 55 66  1  0  0  0  0
 56 57  3  0  0  0  0
 58 59  1  0  0  0  0
 58 64  2  0  0  0  0
 59 60  2  0  0  0  0
 59135  1  0  0  0  0
 60 61  1  0  0  0  0
 60136  1  0  0  0  0
 61 62  1  0  0  0  0
 61 63  2  0  0  0  0
 63 64  1  0  0  0  0
 63137  1  0  0  0  0
 64 65  1  0  0  0  0
 66 67  1  0  0  0  0
 66138  1  0  0  0  0
 67 68  1  0  0  0  0
 67 73  2  0  0  0  0
 68 69  2  0  0  0  0
 68139  1  0  0  0  0
 69 70  1  0  0  0  0
 69140  1  0  0  0  0
 70 71  2  0  0  0  0
 70141  1  0  0  0  0
 71 72  1  0  0  0  0
 71 73  1  0  0  0  0
 73 74  1  0  0  0  0
 75 76  1  0  0  0  0
 75 78  2  0  0  0  0
 76 77  1  0  0  0  0
 77142  1  0  0  0  0
 77143  1  0  0  0  0
 77144  1  0  0  0  0
 78145  1  0  0  0  0
 79 80  1  0  0  0  0
 79146  1  0  0  0  0
 79147  1  0  0  0  0
 80148  1  0  0  0  0
 80149  1  0  0  0  0
 81 82  1  0  0  0  0
 81150  1  0  0  0  0
 82 83  1  0  0  0  0
 83 84  1  0  0  0  0
 84151  1  0  0  0  0
 84152  1  0  0  0  0
 84153  1  0  0  0  0
 85 86  2  0  0  0  0
 87154  1  0  0  0  0
M  END
>  <Compound ID>
580

>  <Uniprot>
P00533

>  <Target>
EGFR L858R/T790M

>  <E3 ligase>
MDM2

>  <DC50 (nM)>
>2000

>  <Assay (DC50/Dmax)>
Degradation of EGFR L858R/T790M in H1975 cells after 16h treatment

>  <Article DOI>
10.1016/j.ejmech.2020.112199

>  <Molecular Weight>
1223.223

>  <Exact Mass>
1221.457

>  <XLogP3>
9.71

>  <Heavy Atom Count>
87

>  <Ring Count>
9

>  <Hydrogen Bond Acceptor Count>
14

>  <Hydrogen Bond Donor Count>
5

>  <Rotatable Bond Count>
20

>  <Topological Polar Surface Area>
224.94

>  <Molecular Formula>
C65H67Cl2F2N11O7

>  <InChI>
InChI=1S/C65H67Cl2F2N11O7/c1-8-54(81)73-41-14-12-15-43(33-41)80-56(83)30-38(2)45-36-72-63(77-60(45)80)75-50-24-21-42(34-52(50)87-7)78-26-28-79(29-27-78)55(82)18-10-9-11-25-71-61(84)39-19-23-49(51(31-39)86-6)74-62(85)59-57(44-16-13-17-47(67)58(44)69)65(37-70,53(76-59)35-64(3,4)5)46-22-20-40(66)32-48(46)68/h8,12-17,19-24,30-34,36,53,57,59,76H,1,9-11,18,25-29,35H2,2-7H3,(H,71,84)(H,73,81)(H,74,85)(H,72,75,77)/t53-,57-,59+,65-/m0/s1

>  <InChI Key>
KFRDCTCOKBRAAL-OIUJZHHCSA-N

$$$$
