2280
  MOE2018           3D

134140  0  0  1  0  0  0  0  0999 V2000
   21.2080   26.4880   -3.8930 C   0  0  0  0  0  0  0  0  0  0  0  0
   20.8570   27.4290   -2.7650 C   0  0  0  0  0  0  0  0  0  0  0  0
   20.1290   27.0880   -1.6530 C   0  0  0  0  0  0  0  0  0  0  0  0
   19.5210   25.8110   -1.3040 C   0  0  0  0  0  0  0  0  0  0  0  0
   19.7610   25.2270   -0.0560 C   0  0  0  0  0  0  0  0  0  0  0  0
   19.1830   24.0090    0.2830 C   0  0  0  0  0  0  0  0  0  0  0  0
   18.3490   23.3490   -0.6180 C   0  0  0  0  0  0  0  0  0  0  0  0
   17.7130   22.0290   -0.2370 C   0  0  0  0  0  0  0  0  0  0  0  0
   16.5330   22.4280    0.5120 N   0  0  0  0  0  0  0  0  0  0  0  0
   15.8940   21.5910    1.3330 C   0  0  0  0  0  0  0  0  0  0  0  0
   16.3420   20.4680    1.5590 O   0  0  0  0  0  0  0  0  0  0  0  0
   14.6400   22.1150    2.0860 C   0  0  2  0  0  0  0  0  0  0  0  0
   14.9440   22.3880    3.5680 C   0  0  0  0  0  0  0  0  0  0  0  0
   13.6890   21.9460    4.3150 C   0  0  1  0  0  0  0  0  0  0  0  0
   12.7620   23.0120    4.3470 O   0  0  0  0  0  0  0  0  0  0  0  0
   13.1630   20.8000    3.4500 C   0  0  0  0  0  0  0  0  0  0  0  0
   13.5090   21.1800    2.0860 N   0  0  0  0  0  0  0  0  0  0  0  0
   12.8740   20.8480    0.9450 C   0  0  0  0  0  0  0  0  0  0  0  0
   13.1440   21.4540   -0.0950 O   0  0  0  0  0  0  0  0  0  0  0  0
   11.8000   19.7200    0.9240 C   0  0  1  0  0  0  0  0  0  0  0  0
   10.6750   20.1010    0.0540 N   0  0  0  0  0  0  0  0  0  0  0  0
    9.3940   19.9940    0.3930 C   0  0  0  0  0  0  0  0  0  0  0  0
    9.0470   19.5620    1.4850 O   0  0  0  0  0  0  0  0  0  0  0  0
    8.3710   20.4310   -0.6460 C   0  0  0  0  0  0  0  0  0  0  0  0
    6.9340   20.1700   -0.1990 C   0  0  0  0  0  0  0  0  0  0  0  0
    6.0650   20.5390   -1.2590 O   0  0  0  0  0  0  0  0  0  0  0  0
    4.7000   20.2920   -0.9460 C   0  0  0  0  0  0  0  0  0  0  0  0
    3.8200   20.7300   -2.1210 C   0  0  0  0  0  0  0  0  0  0  0  0
    2.4840   20.1490   -1.8950 N   0  0  0  0  0  0  0  0  0  0  0  0
    1.5650   20.6820   -1.0260 C   0  0  0  0  0  0  0  0  0  0  0  0
    1.8800   21.7160   -0.4500 O   0  0  0  0  0  0  0  0  0  0  0  0
    0.2780   20.0070   -0.8230 C   0  0  0  0  0  0  0  0  0  0  0  0
    0.0780   18.6620   -1.1790 C   0  0  0  0  0  0  0  0  0  0  0  0
   -1.1490   18.0460   -0.9670 C   0  0  0  0  0  0  0  0  0  0  0  0
   -2.2150   18.7460   -0.3880 C   0  0  0  0  0  0  0  0  0  0  0  0
   -3.4980   18.0970   -0.1520 C   0  0  0  0  0  0  0  0  0  0  0  0
   -3.5580   16.8290    0.4450 C   0  0  0  0  0  0  0  0  0  0  0  0
   -4.7790   16.2040    0.6800 C   0  0  0  0  0  0  0  0  0  0  0  0
   -5.9670   16.8390    0.3300 C   0  0  0  0  0  0  0  0  0  0  0  0
   -7.1670   16.1510    0.6240 N   0  0  0  0  0  0  0  0  0  0  0  0
   -7.9310   15.6620   -0.5580 C   0  0  0  0  0  0  0  0  0  0  0  0
   -9.0630   14.7360   -0.0560 C   0  0  0  0  0  0  0  0  0  0  0  0
   -9.9260   15.5340    0.8620 N   0  3  0  0  0  0  0  0  0  0  0  0
  -11.1090   14.7400    1.2360 C   0  0  0  0  0  0  0  0  0  0  0  0
   -9.1280   15.8390    2.0830 C   0  0  0  0  0  0  0  0  0  0  0  0
   -7.9920   16.8050    1.6770 C   0  0  0  0  0  0  0  0  0  0  0  0
   -5.9200   18.1190   -0.2690 C   0  0  0  0  0  0  0  0  0  0  0  0
   -7.1470   18.7300   -0.6470 N   0  0  0  0  0  0  0  0  0  0  0  0
   -7.4820   20.0620   -0.7160 C   0  0  0  0  0  0  0  0  0  0  0  0
   -6.6520   20.8920   -0.3770 O   0  0  0  0  0  0  0  0  0  0  0  0
   -8.8350   20.3930   -1.1580 C   0  0  0  0  0  0  0  0  0  0  0  0
   -9.8840   19.5890   -0.7480 C   0  0  0  0  0  0  0  0  0  0  0  0
  -11.1710   19.8750   -1.1130 N   0  0  0  0  0  0  0  0  0  0  0  0
  -11.5020   20.9560   -1.8750 C   0  0  0  0  0  0  0  0  0  0  0  0
  -12.6960   21.1000   -2.1130 O   0  0  0  0  0  0  0  0  0  0  0  0
  -10.4370   21.7980   -2.3210 C   0  0  0  0  0  0  0  0  0  0  0  0
   -9.1260   21.5420   -2.0000 C   0  0  0  0  0  0  0  0  0  0  0  0
   -8.0140   22.4600   -2.5460 C   0  0  0  0  0  0  0  0  0  0  0  0
   -7.5660   23.2700   -1.5810 F   0  0  0  0  0  0  0  0  0  0  0  0
   -8.4970   23.2300   -3.5390 F   0  0  0  0  0  0  0  0  0  0  0  0
   -7.0110   21.7290   -3.0570 F   0  0  0  0  0  0  0  0  0  0  0  0
   -4.6940   18.7320   -0.5160 C   0  0  0  0  0  0  0  0  0  0  0  0
   -2.0170   20.0860   -0.0330 C   0  0  0  0  0  0  0  0  0  0  0  0
   -0.7920   20.7050   -0.2450 C   0  0  0  0  0  0  0  0  0  0  0  0
   12.3820   18.3280    0.5030 C   0  0  0  0  0  0  0  0  0  0  0  0
   11.3010   17.2290    0.5860 C   0  0  0  0  0  0  0  0  0  0  0  0
   13.5170   17.8860    1.4480 C   0  0  0  0  0  0  0  0  0  0  0  0
   12.9430   18.3210   -0.9340 C   0  0  0  0  0  0  0  0  0  0  0  0
   18.0960   23.9280   -1.8610 C   0  0  0  0  0  0  0  0  0  0  0  0
   18.6760   25.1460   -2.2000 C   0  0  0  0  0  0  0  0  0  0  0  0
   19.9870   28.4470   -0.6170 S   0  0  0  0  0  0  0  0  0  0  0  0
   20.8870   29.3690   -1.7540 C   0  0  0  0  0  0  0  0  0  0  0  0
   21.2730   28.7200   -2.8150 N   0  0  0  0  0  0  0  0  0  0  0  0
   20.7950   25.5010   -3.6850 H   0  0  0  0  0  0  0  0  0  0  0  0
   22.2920   26.4160   -3.9820 H   0  0  0  0  0  0  0  0  0  0  0  0
   20.7910   26.8670   -4.8260 H   0  0  0  0  0  0  0  0  0  0  0  0
   20.4030   25.7280    0.6530 H   0  0  0  0  0  0  0  0  0  0  0  0
   19.3810   23.5710    1.2500 H   0  0  0  0  0  0  0  0  0  0  0  0
   18.3860   21.4360    0.3820 H   0  0  0  0  0  0  0  0  0  0  0  0
   17.4380   21.4580   -1.1240 H   0  0  0  0  0  0  0  0  0  0  0  0
   16.1850   23.3700    0.4080 H   0  0  0  0  0  0  0  0  0  0  0  0
   14.3740   23.0210    1.5410 H   0  0  0  0  0  0  0  0  0  0  0  0
   15.1340   23.4490    3.7310 H   0  0  0  0  0  0  0  0  0  0  0  0
   15.8080   21.8100    3.8950 H   0  0  0  0  0  0  0  0  0  0  0  0
   13.8670   21.6510    5.3490 H   0  0  0  0  0  0  0  0  0  0  0  0
   12.5970   23.2810    3.4400 H   0  0  0  0  0  0  0  0  0  0  0  0
   12.0830   20.7000    3.5590 H   0  0  0  0  0  0  0  0  0  0  0  0
   13.6440   19.8610    3.7220 H   0  0  0  0  0  0  0  0  0  0  0  0
   11.4410   19.6060    1.9470 H   0  0  0  0  0  0  0  0  0  0  0  0
   10.8910   20.4680   -0.8620 H   0  0  0  0  0  0  0  0  0  0  0  0
    8.4920   21.4990   -0.8280 H   0  0  0  0  0  0  0  0  0  0  0  0
    8.5550   19.8820   -1.5700 H   0  0  0  0  0  0  0  0  0  0  0  0
    6.7090   20.7650    0.6860 H   0  0  0  0  0  0  0  0  0  0  0  0
    6.8060   19.1120    0.0320 H   0  0  0  0  0  0  0  0  0  0  0  0
    4.5560   19.2270   -0.7610 H   0  0  0  0  0  0  0  0  0  0  0  0
    4.4240   20.8560   -0.0550 H   0  0  0  0  0  0  0  0  0  0  0  0
    4.2360   20.3610   -3.0590 H   0  0  0  0  0  0  0  0  0  0  0  0
    3.7550   21.8180   -2.1560 H   0  0  0  0  0  0  0  0  0  0  0  0
    2.2320   19.3150   -2.4060 H   0  0  0  0  0  0  0  0  0  0  0  0
    0.8870   18.1010   -1.6220 H   0  0  0  0  0  0  0  0  0  0  0  0
   -1.2830   17.0130   -1.2530 H   0  0  0  0  0  0  0  0  0  0  0  0
   -2.6420   16.3300    0.7270 H   0  0  0  0  0  0  0  0  0  0  0  0
   -4.8050   15.2250    1.1350 H   0  0  0  0  0  0  0  0  0  0  0  0
   -8.3580   16.5080   -1.0960 H   0  0  0  0  0  0  0  0  0  0  0  0
   -7.2680   15.1070   -1.2210 H   0  0  0  0  0  0  0  0  0  0  0  0
   -8.6380   13.8860    0.4780 H   0  0  0  0  0  0  0  0  0  0  0  0
   -9.6510   14.3770   -0.9000 H   0  0  0  0  0  0  0  0  0  0  0  0
  -10.2310   16.3860    0.4130 H   0  0  0  0  0  0  0  0  0  0  0  0
  -10.7890   13.8180    1.7210 H   0  0  0  0  0  0  0  0  0  0  0  0
  -11.6830   14.5000    0.3410 H   0  0  0  0  0  0  0  0  0  0  0  0
  -11.7300   15.3150    1.9220 H   0  0  0  0  0  0  0  0  0  0  0  0
   -9.7640   16.3090    2.8330 H   0  0  0  0  0  0  0  0  0  0  0  0
   -8.7060   14.9200    2.4890 H   0  0  0  0  0  0  0  0  0  0  0  0
   -7.3710   17.0270    2.5450 H   0  0  0  0  0  0  0  0  0  0  0  0
   -8.4180   17.7300    1.2880 H   0  0  0  0  0  0  0  0  0  0  0  0
   -7.8840   18.0890   -0.9040 H   0  0  0  0  0  0  0  0  0  0  0  0
   -9.6840   18.7250   -0.1320 H   0  0  0  0  0  0  0  0  0  0  0  0
  -11.9090   19.2580   -0.8040 H   0  0  0  0  0  0  0  0  0  0  0  0
  -10.6690   22.6610   -2.9280 H   0  0  0  0  0  0  0  0  0  0  0  0
   -4.6640   19.7020   -0.9900 H   0  0  0  0  0  0  0  0  0  0  0  0
   -2.8270   20.6450    0.4110 H   0  0  0  0  0  0  0  0  0  0  0  0
   -0.6620   21.7390    0.0390 H   0  0  0  0  0  0  0  0  0  0  0  0
   11.7310   16.2730    0.2890 H   0  0  0  0  0  0  0  0  0  0  0  0
   10.4760   17.4790   -0.0810 H   0  0  0  0  0  0  0  0  0  0  0  0
   10.9320   17.1590    1.6090 H   0  0  0  0  0  0  0  0  0  0  0  0
   13.8990   16.9160    1.1280 H   0  0  0  0  0  0  0  0  0  0  0  0
   13.1330   17.8080    2.4650 H   0  0  0  0  0  0  0  0  0  0  0  0
   14.3210   18.6210    1.4190 H   0  0  0  0  0  0  0  0  0  0  0  0
   13.3320   17.3300   -1.1670 H   0  0  0  0  0  0  0  0  0  0  0  0
   13.7460   19.0540   -1.0140 H   0  0  0  0  0  0  0  0  0  0  0  0
   12.1480   18.5740   -1.6360 H   0  0  0  0  0  0  0  0  0  0  0  0
   17.4460   23.4280   -2.5640 H   0  0  0  0  0  0  0  0  0  0  0  0
   18.4720   25.5840   -3.1660 H   0  0  0  0  0  0  0  0  0  0  0  0
   21.1160   30.4130   -1.6000 H   0  0  0  0  0  0  0  0  0  0  0  0
  1  2  1  0  0  0  0
  1 74  1  0  0  0  0
  1 75  1  0  0  0  0
  1 76  1  0  0  0  0
  2  3  2  0  0  0  0
  2 73  1  0  0  0  0
  3  4  1  0  0  0  0
  3 71  1  0  0  0  0
  4  5  1  0  0  0  0
  4 70  2  0  0  0  0
  5  6  2  0  0  0  0
  5 77  1  0  0  0  0
  6  7  1  0  0  0  0
  6 78  1  0  0  0  0
  7  8  1  0  0  0  0
  7 69  2  0  0  0  0
  8  9  1  0  0  0  0
  8 79  1  0  0  0  0
  8 80  1  0  0  0  0
  9 10  1  0  0  0  0
  9 81  1  0  0  0  0
 10 11  2  0  0  0  0
 10 12  1  0  0  0  0
 12 13  1  0  0  0  0
 12 17  1  0  0  0  0
 12 82  1  0  0  0  0
 13 14  1  0  0  0  0
 13 83  1  0  0  0  0
 13 84  1  0  0  0  0
 14 15  1  0  0  0  0
 14 16  1  0  0  0  0
 14 85  1  0  0  0  0
 15 86  1  0  0  0  0
 16 17  1  0  0  0  0
 16 87  1  0  0  0  0
 16 88  1  0  0  0  0
 17 18  1  0  0  0  0
 18 19  2  0  0  0  0
 18 20  1  0  0  0  0
 20 21  1  0  0  0  0
 20 65  1  0  0  0  0
 20 89  1  0  0  0  0
 21 22  1  0  0  0  0
 21 90  1  0  0  0  0
 22 23  2  0  0  0  0
 22 24  1  0  0  0  0
 24 25  1  0  0  0  0
 24 91  1  0  0  0  0
 24 92  1  0  0  0  0
 25 26  1  0  0  0  0
 25 93  1  0  0  0  0
 25 94  1  0  0  0  0
 26 27  1  0  0  0  0
 27 28  1  0  0  0  0
 27 95  1  0  0  0  0
 27 96  1  0  0  0  0
 28 29  1  0  0  0  0
 28 97  1  0  0  0  0
 28 98  1  0  0  0  0
 29 30  1  0  0  0  0
 29 99  1  0  0  0  0
 30 31  2  0  0  0  0
 30 32  1  0  0  0  0
 32 33  1  0  0  0  0
 32 64  2  0  0  0  0
 33 34  2  0  0  0  0
 33100  1  0  0  0  0
 34 35  1  0  0  0  0
 34101  1  0  0  0  0
 35 36  1  0  0  0  0
 35 63  2  0  0  0  0
 36 37  2  0  0  0  0
 36 62  1  0  0  0  0
 37 38  1  0  0  0  0
 37102  1  0  0  0  0
 38 39  2  0  0  0  0
 38103  1  0  0  0  0
 39 40  1  0  0  0  0
 39 47  1  0  0  0  0
 40 41  1  0  0  0  0
 40 46  1  0  0  0  0
 41 42  1  0  0  0  0
 41104  1  0  0  0  0
 41105  1  0  0  0  0
 42 43  1  0  0  0  0
 42106  1  0  0  0  0
 42107  1  0  0  0  0
 43 44  1  0  0  0  0
 43 45  1  0  0  0  0
 43108  1  0  0  0  0
 44109  1  0  0  0  0
 44110  1  0  0  0  0
 44111  1  0  0  0  0
 45 46  1  0  0  0  0
 45112  1  0  0  0  0
 45113  1  0  0  0  0
 46114  1  0  0  0  0
 46115  1  0  0  0  0
 47 48  1  0  0  0  0
 47 62  2  0  0  0  0
 48 49  1  0  0  0  0
 48116  1  0  0  0  0
 49 50  2  0  0  0  0
 49 51  1  0  0  0  0
 51 52  2  0  0  0  0
 51 57  1  0  0  0  0
 52 53  1  0  0  0  0
 52117  1  0  0  0  0
 53 54  1  0  0  0  0
 53118  1  0  0  0  0
 54 55  2  0  0  0  0
 54 56  1  0  0  0  0
 56 57  2  0  0  0  0
 56119  1  0  0  0  0
 57 58  1  0  0  0  0
 58 59  1  0  0  0  0
 58 60  1  0  0  0  0
 58 61  1  0  0  0  0
 62120  1  0  0  0  0
 63 64  1  0  0  0  0
 63121  1  0  0  0  0
 64122  1  0  0  0  0
 65 66  1  0  0  0  0
 65 67  1  0  0  0  0
 65 68  1  0  0  0  0
 66123  1  0  0  0  0
 66124  1  0  0  0  0
 66125  1  0  0  0  0
 67126  1  0  0  0  0
 67127  1  0  0  0  0
 67128  1  0  0  0  0
 68129  1  0  0  0  0
 68130  1  0  0  0  0
 68131  1  0  0  0  0
 69 70  1  0  0  0  0
 69132  1  0  0  0  0
 70133  1  0  0  0  0
 71 72  1  0  0  0  0
 72 73  2  0  0  0  0
 72134  1  0  0  0  0
M  CHG  1  43   1
M  END
>  <Compound ID>
2280

>  <Uniprot>
P61964

>  <Target>
WDR5

>  <E3 ligase>
VHL

>  <Dmax (%)>
N.D.

>  <Kd (nM, Protac to Target)>
41

>  <Assay (Protac to Target, Kd)>
ITC

>  <Article DOI>
10.1021/acs.jmedchem.1c00146

>  <Molecular Weight>
1028.168

>  <Exact Mass>
1027.4237

>  <XLogP3>
3.9000001

>  <Heavy Atom Count>
73

>  <Ring Count>
7

>  <Hydrogen Bond Acceptor Count>
12

>  <Hydrogen Bond Donor Count>
6

>  <Rotatable Bond Count>
17

>  <Topological Polar Surface Area>
218.39999

>  <Molecular Formula>
C52H60F3N9O8S

>  <InChI>
InChI=1S/C52H60F3N9O8S/c1-31-45(73-30-59-31)34-8-6-32(7-9-34)27-58-49(70)42-25-37(65)29-64(42)50(71)46(51(2,3)4)61-43(66)16-22-72-23-17-56-47(68)35-12-10-33(11-13-35)36-14-15-41(63-20-18-62(5)19-21-63)40(24-36)60-48(69)38-28-57-44(67)26-39(38)52(53,54)55/h6-15,24,26,28,30,37,42,46,65H,16-23,25,27,29H2,1-5H3,(H,56,68)(H,57,67)(H,58,70)(H,60,69)(H,61,66)/t37-,42+,46-/m1/s1

>  <InChI Key>
WZJUOFSNOKPRHG-BQGOKDIQSA-N

$$$$
2281
  MOE2018           3D

141147  0  0  1  0  0  0  0  0999 V2000
    6.5310  -14.6310    2.4770 C   0  0  0  0  0  0  0  0  0  0  0  0
    7.7900  -15.4640    2.4280 C   0  0  0  0  0  0  0  0  0  0  0  0
    7.9670  -16.5810    1.6520 C   0  0  0  0  0  0  0  0  0  0  0  0
    7.0340  -17.2310    0.7400 C   0  0  0  0  0  0  0  0  0  0  0  0
    5.7270  -17.5380    1.1400 C   0  0  0  0  0  0  0  0  0  0  0  0
    4.8430  -18.1600    0.2660 C   0  0  0  0  0  0  0  0  0  0  0  0
    5.2460  -18.4910   -1.0270 C   0  0  0  0  0  0  0  0  0  0  0  0
    4.2900  -19.1950   -1.9650 C   0  0  0  0  0  0  0  0  0  0  0  0
    4.5700  -20.5950   -1.6970 N   0  0  0  0  0  0  0  0  0  0  0  0
    3.9010  -21.5760   -2.3030 C   0  0  0  0  0  0  0  0  0  0  0  0
    3.1260  -21.3380   -3.2230 O   0  0  0  0  0  0  0  0  0  0  0  0
    4.1430  -23.0290   -1.8100 C   0  0  2  0  0  0  0  0  0  0  0  0
    5.0180  -23.8060   -2.8050 C   0  0  0  0  0  0  0  0  0  0  0  0
    4.4760  -25.2300   -2.7750 C   0  0  1  0  0  0  0  0  0  0  0  0
    5.0760  -25.9330   -1.7060 O   0  0  0  0  0  0  0  0  0  0  0  0
    2.9860  -25.0070   -2.5170 C   0  0  0  0  0  0  0  0  0  0  0  0
    2.9260  -23.8380   -1.6490 N   0  0  0  0  0  0  0  0  0  0  0  0
    1.8480  -23.5630   -0.8840 C   0  0  0  0  0  0  0  0  0  0  0  0
    0.8470  -24.2740   -0.9730 O   0  0  0  0  0  0  0  0  0  0  0  0
    1.8510  -22.3810    0.1350 C   0  0  1  0  0  0  0  0  0  0  0  0
    0.6150  -21.6030   -0.0110 N   0  0  0  0  0  0  0  0  0  0  0  0
    0.5620  -20.2760   -0.0560 C   0  0  0  0  0  0  0  0  0  0  0  0
    1.5440  -19.5730    0.1470 O   0  0  0  0  0  0  0  0  0  0  0  0
   -0.7920  -19.6520   -0.3360 C   0  0  0  0  0  0  0  0  0  0  0  0
   -1.7010  -19.7400    0.8870 C   0  0  0  0  0  0  0  0  0  0  0  0
   -2.9890  -19.2930    0.5020 O   0  0  0  0  0  0  0  0  0  0  0  0
   -3.9500  -19.4240    1.5410 C   0  0  0  0  0  0  0  0  0  0  0  0
   -5.3140  -18.9840    1.0150 C   0  0  0  0  0  0  0  0  0  0  0  0
   -6.3180  -19.3300    1.9610 O   0  0  0  0  0  0  0  0  0  0  0  0
   -7.6230  -19.0040    1.5010 C   0  0  0  0  0  0  0  0  0  0  0  0
   -8.6560  -19.5250    2.5050 C   0  0  0  0  0  0  0  0  0  0  0  0
   -9.9600  -18.9570    2.1180 N   0  0  0  0  0  0  0  0  0  0  0  0
  -10.7180  -19.4430    1.0830 C   0  0  0  0  0  0  0  0  0  0  0  0
  -10.2560  -20.3790    0.4420 O   0  0  0  0  0  0  0  0  0  0  0  0
  -12.0220  -18.8370    0.7960 C   0  0  0  0  0  0  0  0  0  0  0  0
  -12.9870  -19.5610    0.0820 C   0  0  0  0  0  0  0  0  0  0  0  0
  -14.2340  -19.0120   -0.1880 C   0  0  0  0  0  0  0  0  0  0  0  0
  -14.5570  -17.7190    0.2430 C   0  0  0  0  0  0  0  0  0  0  0  0
  -15.8730  -17.1530   -0.0280 C   0  0  0  0  0  0  0  0  0  0  0  0
  -16.0050  -15.8500   -0.5310 C   0  0  0  0  0  0  0  0  0  0  0  0
  -17.2600  -15.3020   -0.7780 C   0  0  0  0  0  0  0  0  0  0  0  0
  -18.4100  -16.0490   -0.5360 C   0  0  0  0  0  0  0  0  0  0  0  0
  -19.6470  -15.4250   -0.8140 N   0  0  0  0  0  0  0  0  0  0  0  0
  -20.4750  -15.1060    0.3840 C   0  0  0  0  0  0  0  0  0  0  0  0
  -21.6780  -14.2440   -0.0640 C   0  0  0  0  0  0  0  0  0  0  0  0
  -22.4470  -15.0300   -1.0700 N   0  3  0  0  0  0  0  0  0  0  0  0
  -23.6920  -14.3180   -1.4000 C   0  0  0  0  0  0  0  0  0  0  0  0
  -21.6030  -15.1470   -2.2930 C   0  0  0  0  0  0  0  0  0  0  0  0
  -20.3910  -16.0430   -1.9480 C   0  0  0  0  0  0  0  0  0  0  0  0
  -18.2870  -17.3690   -0.0430 C   0  0  0  0  0  0  0  0  0  0  0  0
  -19.4760  -18.1040    0.2210 N   0  0  0  0  0  0  0  0  0  0  0  0
  -19.7000  -19.4600    0.1680 C   0  0  0  0  0  0  0  0  0  0  0  0
  -18.7940  -20.1900   -0.2030 O   0  0  0  0  0  0  0  0  0  0  0  0
  -21.0340  -19.9350    0.5280 C   0  0  0  0  0  0  0  0  0  0  0  0
  -22.1330  -19.1930    0.1340 C   0  0  0  0  0  0  0  0  0  0  0  0
  -23.4030  -19.6150    0.4190 N   0  0  0  0  0  0  0  0  0  0  0  0
  -23.6660  -20.7750    1.0850 C   0  0  0  0  0  0  0  0  0  0  0  0
  -24.8510  -21.0380    1.2580 O   0  0  0  0  0  0  0  0  0  0  0  0
  -22.5490  -21.5550    1.5160 C   0  0  0  0  0  0  0  0  0  0  0  0
  -21.2540  -21.1650    1.2720 C   0  0  0  0  0  0  0  0  0  0  0  0
  -20.0850  -22.0220    1.7980 C   0  0  0  0  0  0  0  0  0  0  0  0
  -19.5360  -22.7200    0.7990 F   0  0  0  0  0  0  0  0  0  0  0  0
  -20.5340  -22.8990    2.7160 F   0  0  0  0  0  0  0  0  0  0  0  0
  -19.1680  -21.2470    2.3980 F   0  0  0  0  0  0  0  0  0  0  0  0
  -17.0300  -17.9050    0.2170 C   0  0  0  0  0  0  0  0  0  0  0  0
  -13.5910  -16.9890    0.9450 C   0  0  0  0  0  0  0  0  0  0  0  0
  -12.3420  -17.5350    1.2160 C   0  0  0  0  0  0  0  0  0  0  0  0
    2.0630  -22.8410    1.6170 C   0  0  0  0  0  0  0  0  0  0  0  0
    0.9000  -23.6940    2.1680 C   0  0  0  0  0  0  0  0  0  0  0  0
    2.2240  -21.6250    2.5530 C   0  0  0  0  0  0  0  0  0  0  0  0
    3.3580  -23.6660    1.7610 C   0  0  0  0  0  0  0  0  0  0  0  0
    6.5460  -18.1950   -1.4320 C   0  0  0  0  0  0  0  0  0  0  0  0
    7.4300  -17.5730   -0.5580 C   0  0  0  0  0  0  0  0  0  0  0  0
    9.5510  -17.1980    1.8850 S   0  0  0  0  0  0  0  0  0  0  0  0
    9.8460  -15.9340    3.0110 C   0  0  0  0  0  0  0  0  0  0  0  0
    8.8540  -15.1130    3.1960 N   0  0  0  0  0  0  0  0  0  0  0  0
    5.7880  -15.0560    1.8030 H   0  0  0  0  0  0  0  0  0  0  0  0
    6.7590  -13.6100    2.1700 H   0  0  0  0  0  0  0  0  0  0  0  0
    6.1380  -14.6260    3.4940 H   0  0  0  0  0  0  0  0  0  0  0  0
    5.4020  -17.2880    2.1390 H   0  0  0  0  0  0  0  0  0  0  0  0
    3.8380  -18.3880    0.5900 H   0  0  0  0  0  0  0  0  0  0  0  0
    4.4990  -18.9420   -3.0050 H   0  0  0  0  0  0  0  0  0  0  0  0
    3.2540  -18.9480   -1.7320 H   0  0  0  0  0  0  0  0  0  0  0  0
    5.2930  -20.8320   -1.0320 H   0  0  0  0  0  0  0  0  0  0  0  0
    4.6140  -22.8920   -0.8370 H   0  0  0  0  0  0  0  0  0  0  0  0
    6.0620  -23.7870   -2.4940 H   0  0  0  0  0  0  0  0  0  0  0  0
    4.9290  -23.3830   -3.8060 H   0  0  0  0  0  0  0  0  0  0  0  0
    4.6700  -25.8110   -3.6770 H   0  0  0  0  0  0  0  0  0  0  0  0
    4.9140  -25.4330   -0.9030 H   0  0  0  0  0  0  0  0  0  0  0  0
    2.5480  -25.8740   -2.0230 H   0  0  0  0  0  0  0  0  0  0  0  0
    2.4590  -24.8180   -3.4520 H   0  0  0  0  0  0  0  0  0  0  0  0
    2.7090  -21.7500   -0.1000 H   0  0  0  0  0  0  0  0  0  0  0  0
   -0.2550  -22.1110   -0.0820 H   0  0  0  0  0  0  0  0  0  0  0  0
   -0.6530  -18.6040   -0.6020 H   0  0  0  0  0  0  0  0  0  0  0  0
   -1.2610  -20.1780   -1.1670 H   0  0  0  0  0  0  0  0  0  0  0  0
   -1.3120  -19.1070    1.6850 H   0  0  0  0  0  0  0  0  0  0  0  0
   -1.7550  -20.7710    1.2350 H   0  0  0  0  0  0  0  0  0  0  0  0
   -4.0010  -20.4640    1.8630 H   0  0  0  0  0  0  0  0  0  0  0  0
   -3.6640  -18.7960    2.3850 H   0  0  0  0  0  0  0  0  0  0  0  0
   -5.5180  -19.4850    0.0690 H   0  0  0  0  0  0  0  0  0  0  0  0
   -5.3140  -17.9050    0.8620 H   0  0  0  0  0  0  0  0  0  0  0  0
   -7.7170  -17.9220    1.4090 H   0  0  0  0  0  0  0  0  0  0  0  0
   -7.7930  -19.4670    0.5290 H   0  0  0  0  0  0  0  0  0  0  0  0
   -8.3930  -19.2040    3.5130 H   0  0  0  0  0  0  0  0  0  0  0  0
   -8.6970  -20.6140    2.4690 H   0  0  0  0  0  0  0  0  0  0  0  0
  -10.3140  -18.1690    2.6420 H   0  0  0  0  0  0  0  0  0  0  0  0
  -12.7580  -20.5590   -0.2630 H   0  0  0  0  0  0  0  0  0  0  0  0
  -14.9630  -19.5890   -0.7370 H   0  0  0  0  0  0  0  0  0  0  0  0
  -15.1200  -15.2640   -0.7290 H   0  0  0  0  0  0  0  0  0  0  0  0
  -17.3420  -14.2950   -1.1580 H   0  0  0  0  0  0  0  0  0  0  0  0
  -20.8340  -16.0290    0.8390 H   0  0  0  0  0  0  0  0  0  0  0  0
  -19.8760  -14.5530    1.1080 H   0  0  0  0  0  0  0  0  0  0  0  0
  -21.3240  -13.3150   -0.5100 H   0  0  0  0  0  0  0  0  0  0  0  0
  -22.3120  -14.0170    0.7930 H   0  0  0  0  0  0  0  0  0  0  0  0
  -22.6780  -15.9440   -0.7080 H   0  0  0  0  0  0  0  0  0  0  0  0
  -23.4520  -13.3300   -1.7920 H   0  0  0  0  0  0  0  0  0  0  0  0
  -24.3010  -14.2150   -0.5020 H   0  0  0  0  0  0  0  0  0  0  0  0
  -24.2450  -14.8820   -2.1510 H   0  0  0  0  0  0  0  0  0  0  0  0
  -22.1800  -15.5990   -3.1000 H   0  0  0  0  0  0  0  0  0  0  0  0
  -21.2580  -14.1600   -2.6010 H   0  0  0  0  0  0  0  0  0  0  0  0
  -19.7360  -16.1240   -2.8160 H   0  0  0  0  0  0  0  0  0  0  0  0
  -20.7390  -17.0350   -1.6610 H   0  0  0  0  0  0  0  0  0  0  0  0
  -20.2750  -17.5470    0.4870 H   0  0  0  0  0  0  0  0  0  0  0  0
  -21.9870  -18.2690   -0.4050 H   0  0  0  0  0  0  0  0  0  0  0  0
  -24.1800  -19.0420    0.1230 H   0  0  0  0  0  0  0  0  0  0  0  0
  -22.7280  -22.4770    2.0490 H   0  0  0  0  0  0  0  0  0  0  0  0
  -16.9450  -18.9070    0.6100 H   0  0  0  0  0  0  0  0  0  0  0  0
  -13.8190  -15.9880    1.2810 H   0  0  0  0  0  0  0  0  0  0  0  0
  -11.6100  -16.9520    1.7550 H   0  0  0  0  0  0  0  0  0  0  0  0
    1.1140  -23.9770    3.1990 H   0  0  0  0  0  0  0  0  0  0  0  0
    0.7880  -24.5920    1.5600 H   0  0  0  0  0  0  0  0  0  0  0  0
   -0.0230  -23.1150    2.1340 H   0  0  0  0  0  0  0  0  0  0  0  0
    2.3700  -21.9710    3.5760 H   0  0  0  0  0  0  0  0  0  0  0  0
    1.3280  -21.0070    2.5030 H   0  0  0  0  0  0  0  0  0  0  0  0
    3.0880  -21.0380    2.2410 H   0  0  0  0  0  0  0  0  0  0  0  0
    3.4800  -23.9720    2.8000 H   0  0  0  0  0  0  0  0  0  0  0  0
    4.2110  -23.0590    1.4590 H   0  0  0  0  0  0  0  0  0  0  0  0
    3.2980  -24.5500    1.1260 H   0  0  0  0  0  0  0  0  0  0  0  0
    6.8690  -18.4500   -2.4310 H   0  0  0  0  0  0  0  0  0  0  0  0
    8.4350  -17.3510   -0.8850 H   0  0  0  0  0  0  0  0  0  0  0  0
   10.7880  -15.8290    3.5280 H   0  0  0  0  0  0  0  0  0  0  0  0
  1  2  1  0  0  0  0
  1 77  1  0  0  0  0
  1 78  1  0  0  0  0
  1 79  1  0  0  0  0
  2  3  2  0  0  0  0
  2 76  1  0  0  0  0
  3  4  1  0  0  0  0
  3 74  1  0  0  0  0
  4  5  1  0  0  0  0
  4 73  2  0  0  0  0
  5  6  2  0  0  0  0
  5 80  1  0  0  0  0
  6  7  1  0  0  0  0
  6 81  1  0  0  0  0
  7  8  1  0  0  0  0
  7 72  2  0  0  0  0
  8  9  1  0  0  0  0
  8 82  1  0  0  0  0
  8 83  1  0  0  0  0
  9 10  1  0  0  0  0
  9 84  1  0  0  0  0
 10 11  2  0  0  0  0
 10 12  1  0  0  0  0
 12 13  1  0  0  0  0
 12 17  1  0  0  0  0
 12 85  1  0  0  0  0
 13 14  1  0  0  0  0
 13 86  1  0  0  0  0
 13 87  1  0  0  0  0
 14 15  1  0  0  0  0
 14 16  1  0  0  0  0
 14 88  1  0  0  0  0
 15 89  1  0  0  0  0
 16 17  1  0  0  0  0
 16 90  1  0  0  0  0
 16 91  1  0  0  0  0
 17 18  1  0  0  0  0
 18 19  2  0  0  0  0
 18 20  1  0  0  0  0
 20 21  1  0  0  0  0
 20 68  1  0  0  0  0
 20 92  1  0  0  0  0
 21 22  1  0  0  0  0
 21 93  1  0  0  0  0
 22 23  2  0  0  0  0
 22 24  1  0  0  0  0
 24 25  1  0  0  0  0
 24 94  1  0  0  0  0
 24 95  1  0  0  0  0
 25 26  1  0  0  0  0
 25 96  1  0  0  0  0
 25 97  1  0  0  0  0
 26 27  1  0  0  0  0
 27 28  1  0  0  0  0
 27 98  1  0  0  0  0
 27 99  1  0  0  0  0
 28 29  1  0  0  0  0
 28100  1  0  0  0  0
 28101  1  0  0  0  0
 29 30  1  0  0  0  0
 30 31  1  0  0  0  0
 30102  1  0  0  0  0
 30103  1  0  0  0  0
 31 32  1  0  0  0  0
 31104  1  0  0  0  0
 31105  1  0  0  0  0
 32 33  1  0  0  0  0
 32106  1  0  0  0  0
 33 34  2  0  0  0  0
 33 35  1  0  0  0  0
 35 36  1  0  0  0  0
 35 67  2  0  0  0  0
 36 37  2  0  0  0  0
 36107  1  0  0  0  0
 37 38  1  0  0  0  0
 37108  1  0  0  0  0
 38 39  1  0  0  0  0
 38 66  2  0  0  0  0
 39 40  2  0  0  0  0
 39 65  1  0  0  0  0
 40 41  1  0  0  0  0
 40109  1  0  0  0  0
 41 42  2  0  0  0  0
 41110  1  0  0  0  0
 42 43  1  0  0  0  0
 42 50  1  0  0  0  0
 43 44  1  0  0  0  0
 43 49  1  0  0  0  0
 44 45  1  0  0  0  0
 44111  1  0  0  0  0
 44112  1  0  0  0  0
 45 46  1  0  0  0  0
 45113  1  0  0  0  0
 45114  1  0  0  0  0
 46 47  1  0  0  0  0
 46 48  1  0  0  0  0
 46115  1  0  0  0  0
 47116  1  0  0  0  0
 47117  1  0  0  0  0
 47118  1  0  0  0  0
 48 49  1  0  0  0  0
 48119  1  0  0  0  0
 48120  1  0  0  0  0
 49121  1  0  0  0  0
 49122  1  0  0  0  0
 50 51  1  0  0  0  0
 50 65  2  0  0  0  0
 51 52  1  0  0  0  0
 51123  1  0  0  0  0
 52 53  2  0  0  0  0
 52 54  1  0  0  0  0
 54 55  2  0  0  0  0
 54 60  1  0  0  0  0
 55 56  1  0  0  0  0
 55124  1  0  0  0  0
 56 57  1  0  0  0  0
 56125  1  0  0  0  0
 57 58  2  0  0  0  0
 57 59  1  0  0  0  0
 59 60  2  0  0  0  0
 59126  1  0  0  0  0
 60 61  1  0  0  0  0
 61 62  1  0  0  0  0
 61 63  1  0  0  0  0
 61 64  1  0  0  0  0
 65127  1  0  0  0  0
 66 67  1  0  0  0  0
 66128  1  0  0  0  0
 67129  1  0  0  0  0
 68 69  1  0  0  0  0
 68 70  1  0  0  0  0
 68 71  1  0  0  0  0
 69130  1  0  0  0  0
 69131  1  0  0  0  0
 69132  1  0  0  0  0
 70133  1  0  0  0  0
 70134  1  0  0  0  0
 70135  1  0  0  0  0
 71136  1  0  0  0  0
 71137  1  0  0  0  0
 71138  1  0  0  0  0
 72 73  1  0  0  0  0
 72139  1  0  0  0  0
 73140  1  0  0  0  0
 74 75  1  0  0  0  0
 75 76  2  0  0  0  0
 75141  1  0  0  0  0
M  CHG  1  46   1
M  END
>  <Compound ID>
2281

>  <Uniprot>
P61964

>  <Target>
WDR5

>  <E3 ligase>
VHL

>  <Dmax (%)>
N.D.

>  <Article DOI>
10.1021/acs.jmedchem.1c00146

>  <Molecular Weight>
1072.2209

>  <Exact Mass>
1071.45

>  <XLogP3>
3.76

>  <Heavy Atom Count>
76

>  <Ring Count>
7

>  <Hydrogen Bond Acceptor Count>
13

>  <Hydrogen Bond Donor Count>
6

>  <Rotatable Bond Count>
20

>  <Topological Polar Surface Area>
227.63

>  <Molecular Formula>
C54H64F3N9O9S

>  <InChI>
InChI=1S/C54H64F3N9O9S/c1-33-47(76-32-61-33)36-8-6-34(7-9-36)29-60-51(72)44-27-39(67)31-66(44)52(73)48(53(2,3)4)63-45(68)16-22-74-24-25-75-23-17-58-49(70)37-12-10-35(11-13-37)38-14-15-43(65-20-18-64(5)19-21-65)42(26-38)62-50(71)40-30-59-46(69)28-41(40)54(55,56)57/h6-15,26,28,30,32,39,44,48,67H,16-25,27,29,31H2,1-5H3,(H,58,70)(H,59,69)(H,60,72)(H,62,71)(H,63,68)/t39-,44+,48-/m1/s1

>  <InChI Key>
CTQDFWAQIJZIMB-UOHLUGTHSA-N

$$$$
2282
  MOE2018           3D

155161  0  0  1  0  0  0  0  0999 V2000
   21.3340   23.1300   -3.1540 C   0  0  0  0  0  0  0  0  0  0  0  0
   22.4460   23.5140   -2.2070 C   0  0  0  0  0  0  0  0  0  0  0  0
   22.2750   23.8590   -0.8900 C   0  0  0  0  0  0  0  0  0  0  0  0
   21.0510   23.9150   -0.1010 C   0  0  0  0  0  0  0  0  0  0  0  0
   20.1640   22.8330   -0.0680 C   0  0  0  0  0  0  0  0  0  0  0  0
   18.9980   22.8920    0.6870 C   0  0  0  0  0  0  0  0  0  0  0  0
   18.6960   24.0310    1.4320 C   0  0  0  0  0  0  0  0  0  0  0  0
   17.4220   24.0990    2.2470 C   0  0  0  0  0  0  0  0  0  0  0  0
   16.4570   24.6520    1.3140 N   0  0  0  0  0  0  0  0  0  0  0  0
   15.2430   25.0510    1.7000 C   0  0  0  0  0  0  0  0  0  0  0  0
   14.9190   25.0240    2.8860 O   0  0  0  0  0  0  0  0  0  0  0  0
   14.2840   25.6330    0.6260 C   0  0  2  0  0  0  0  0  0  0  0  0
   14.0010   27.1200    0.8440 C   0  0  0  0  0  0  0  0  0  0  0  0
   12.7590   27.1450    1.7390 C   0  0  1  0  0  0  0  0  0  0  0  0
   11.9280   28.2190    1.3470 O   0  0  0  0  0  0  0  0  0  0  0  0
   12.0770   25.7870    1.5200 C   0  0  0  0  0  0  0  0  0  0  0  0
   12.9630   25.0100    0.6590 N   0  0  0  0  0  0  0  0  0  0  0  0
   12.7190   23.8400    0.0380 C   0  0  0  0  0  0  0  0  0  0  0  0
   13.5900   23.3440   -0.6770 O   0  0  0  0  0  0  0  0  0  0  0  0
   11.3540   23.1110    0.2300 C   0  0  1  0  0  0  0  0  0  0  0  0
   10.8010   22.6790   -1.0660 N   0  0  0  0  0  0  0  0  0  0  0  0
    9.6280   22.9760   -1.6120 C   0  0  0  0  0  0  0  0  0  0  0  0
    9.3490   22.4960   -2.6990 O   0  0  0  0  0  0  0  0  0  0  0  0
    8.6630   23.9180   -0.8990 C   0  0  0  0  0  0  0  0  0  0  0  0
    7.3920   24.1760   -1.7030 C   0  0  0  0  0  0  0  0  0  0  0  0
    6.5970   25.0920   -0.9670 O   0  0  0  0  0  0  0  0  0  0  0  0
    5.3830   25.4110   -1.6340 C   0  0  0  0  0  0  0  0  0  0  0  0
    4.5860   26.4100   -0.7880 C   0  0  0  0  0  0  0  0  0  0  0  0
    3.2040   26.4120   -1.1380 O   0  0  0  0  0  0  0  0  0  0  0  0
    2.4540   25.3740   -0.5160 C   0  0  0  0  0  0  0  0  0  0  0  0
    1.0140   25.4250   -1.0170 C   0  0  0  0  0  0  0  0  0  0  0  0
    0.3190   24.2850   -0.5300 O   0  0  0  0  0  0  0  0  0  0  0  0
   -1.0170   24.2100   -1.0060 C   0  0  0  0  0  0  0  0  0  0  0  0
   -1.6500   22.9260   -0.4750 C   0  0  0  0  0  0  0  0  0  0  0  0
   -2.8950   22.6980   -1.1240 O   0  0  0  0  0  0  0  0  0  0  0  0
   -3.4730   21.4490   -0.7490 C   0  0  0  0  0  0  0  0  0  0  0  0
   -4.7610   21.1820   -1.5380 C   0  0  0  0  0  0  0  0  0  0  0  0
   -5.6470   22.3110   -1.2570 N   0  0  0  0  0  0  0  0  0  0  0  0
   -7.0020   22.2580   -1.4460 C   0  0  0  0  0  0  0  0  0  0  0  0
   -7.4790   21.1680   -1.7430 O   0  0  0  0  0  0  0  0  0  0  0  0
   -7.8080   23.4760   -1.3030 C   0  0  0  0  0  0  0  0  0  0  0  0
   -7.3250   24.6150   -0.6370 C   0  0  0  0  0  0  0  0  0  0  0  0
   -8.1100   25.7560   -0.5200 C   0  0  0  0  0  0  0  0  0  0  0  0
   -9.4020   25.7980   -1.0610 C   0  0  0  0  0  0  0  0  0  0  0  0
  -10.2290   26.9930   -0.9380 C   0  0  0  0  0  0  0  0  0  0  0  0
   -9.6960   28.2650   -1.2000 C   0  0  0  0  0  0  0  0  0  0  0  0
  -10.4760   29.4120   -1.0830 C   0  0  0  0  0  0  0  0  0  0  0  0
  -11.8160   29.3030   -0.7070 C   0  0  0  0  0  0  0  0  0  0  0  0
  -12.6400   30.4500   -0.5530 N   0  0  0  0  0  0  0  0  0  0  0  0
  -12.4890   31.0640    0.7930 C   0  0  0  0  0  0  0  0  0  0  0  0
  -13.6600   32.0610    0.9810 C   0  0  0  0  0  0  0  0  0  0  0  0
  -13.5440   33.1150   -0.0670 N   0  3  0  0  0  0  0  0  0  0  0  0
  -14.5990   34.1240    0.1170 C   0  0  0  0  0  0  0  0  0  0  0  0
  -13.6630   32.4920   -1.4160 C   0  0  0  0  0  0  0  0  0  0  0  0
  -12.4830   31.5050   -1.5900 C   0  0  0  0  0  0  0  0  0  0  0  0
  -12.3630   28.0300   -0.4560 C   0  0  0  0  0  0  0  0  0  0  0  0
  -13.7390   28.0380   -0.1230 N   0  0  0  0  0  0  0  0  0  0  0  0
  -14.6410   27.0380    0.1420 C   0  0  0  0  0  0  0  0  0  0  0  0
  -14.2560   25.8800    0.1990 O   0  0  0  0  0  0  0  0  0  0  0  0
  -16.0290   27.4420    0.3230 C   0  0  0  0  0  0  0  0  0  0  0  0
  -16.5600   28.3710   -0.5510 C   0  0  0  0  0  0  0  0  0  0  0  0
  -17.8650   28.7700   -0.4410 N   0  0  0  0  0  0  0  0  0  0  0  0
  -18.7110   28.2790    0.5100 C   0  0  0  0  0  0  0  0  0  0  0  0
  -19.8540   28.7210    0.4890 O   0  0  0  0  0  0  0  0  0  0  0  0
  -18.1850   27.3180    1.4290 C   0  0  0  0  0  0  0  0  0  0  0  0
  -16.8780   26.9000    1.3700 C   0  0  0  0  0  0  0  0  0  0  0  0
  -16.3440   25.8910    2.4040 C   0  0  0  0  0  0  0  0  0  0  0  0
  -16.2210   24.6820    1.8500 F   0  0  0  0  0  0  0  0  0  0  0  0
  -17.2040   25.7900    3.4350 F   0  0  0  0  0  0  0  0  0  0  0  0
  -15.1690   26.3090    2.8990 F   0  0  0  0  0  0  0  0  0  0  0  0
  -11.5760   26.8870   -0.5590 C   0  0  0  0  0  0  0  0  0  0  0  0
   -9.8860   24.6610   -1.7180 C   0  0  0  0  0  0  0  0  0  0  0  0
   -9.1040   23.5200   -1.8350 C   0  0  0  0  0  0  0  0  0  0  0  0
   11.4260   21.9050    1.2250 C   0  0  0  0  0  0  0  0  0  0  0  0
   10.0180   21.3330    1.4960 C   0  0  0  0  0  0  0  0  0  0  0  0
   11.9850   22.3400    2.5950 C   0  0  0  0  0  0  0  0  0  0  0  0
   12.3030   20.7450    0.7100 C   0  0  0  0  0  0  0  0  0  0  0  0
   19.5740   25.1130    1.4050 C   0  0  0  0  0  0  0  0  0  0  0  0
   20.7410   25.0540    0.6500 C   0  0  0  0  0  0  0  0  0  0  0  0
   23.7940   24.2480   -0.1940 S   0  0  0  0  0  0  0  0  0  0  0  0
   24.5400   23.9000   -1.7030 C   0  0  0  0  0  0  0  0  0  0  0  0
   23.7280   23.5330   -2.6530 N   0  0  0  0  0  0  0  0  0  0  0  0
   20.3800   23.1690   -2.6290 H   0  0  0  0  0  0  0  0  0  0  0  0
   21.5040   22.1190   -3.5230 H   0  0  0  0  0  0  0  0  0  0  0  0
   21.3150   23.8250   -3.9930 H   0  0  0  0  0  0  0  0  0  0  0  0
   20.3880   21.9420   -0.6360 H   0  0  0  0  0  0  0  0  0  0  0  0
   18.3220   22.0500    0.6960 H   0  0  0  0  0  0  0  0  0  0  0  0
   17.5460   24.7500    3.1120 H   0  0  0  0  0  0  0  0  0  0  0  0
   17.1180   23.1070    2.5800 H   0  0  0  0  0  0  0  0  0  0  0  0
   16.7130   24.7380    0.3410 H   0  0  0  0  0  0  0  0  0  0  0  0
   14.8020   25.4450   -0.3150 H   0  0  0  0  0  0  0  0  0  0  0  0
   13.8020   27.6180   -0.1050 H   0  0  0  0  0  0  0  0  0  0  0  0
   14.8430   27.6040    1.3390 H   0  0  0  0  0  0  0  0  0  0  0  0
   12.9910   27.2930    2.7940 H   0  0  0  0  0  0  0  0  0  0  0  0
   11.7170   28.0990    0.4180 H   0  0  0  0  0  0  0  0  0  0  0  0
   11.1100   25.9250    1.0370 H   0  0  0  0  0  0  0  0  0  0  0  0
   11.9380   25.2780    2.4740 H   0  0  0  0  0  0  0  0  0  0  0  0
   10.6830   23.8430    0.6800 H   0  0  0  0  0  0  0  0  0  0  0  0
   11.3960   22.0740   -1.6140 H   0  0  0  0  0  0  0  0  0  0  0  0
    8.3870   23.4760    0.0580 H   0  0  0  0  0  0  0  0  0  0  0  0
    9.1670   24.8690   -0.7280 H   0  0  0  0  0  0  0  0  0  0  0  0
    6.8470   23.2430   -1.8470 H   0  0  0  0  0  0  0  0  0  0  0  0
    7.6460   24.6010   -2.6740 H   0  0  0  0  0  0  0  0  0  0  0  0
    5.6070   25.8530   -2.6050 H   0  0  0  0  0  0  0  0  0  0  0  0
    4.7960   24.5040   -1.7750 H   0  0  0  0  0  0  0  0  0  0  0  0
    4.9920   27.4090   -0.9460 H   0  0  0  0  0  0  0  0  0  0  0  0
    4.6840   26.1400    0.2630 H   0  0  0  0  0  0  0  0  0  0  0  0
    2.8930   24.4080   -0.7650 H   0  0  0  0  0  0  0  0  0  0  0  0
    2.4690   25.5110    0.5650 H   0  0  0  0  0  0  0  0  0  0  0  0
    1.0050   25.4220   -2.1070 H   0  0  0  0  0  0  0  0  0  0  0  0
    0.5310   26.3320   -0.6530 H   0  0  0  0  0  0  0  0  0  0  0  0
   -1.5820   25.0720   -0.6520 H   0  0  0  0  0  0  0  0  0  0  0  0
   -1.0190   24.1970   -2.0960 H   0  0  0  0  0  0  0  0  0  0  0  0
   -1.8140   23.0200    0.5990 H   0  0  0  0  0  0  0  0  0  0  0  0
   -0.9820   22.0870   -0.6680 H   0  0  0  0  0  0  0  0  0  0  0  0
   -2.7590   20.6510   -0.9510 H   0  0  0  0  0  0  0  0  0  0  0  0
   -3.7050   21.4690    0.3160 H   0  0  0  0  0  0  0  0  0  0  0  0
   -5.2200   20.2490   -1.2100 H   0  0  0  0  0  0  0  0  0  0  0  0
   -4.5470   21.1250   -2.6050 H   0  0  0  0  0  0  0  0  0  0  0  0
   -5.2410   23.1680   -0.9080 H   0  0  0  0  0  0  0  0  0  0  0  0
   -6.3330   24.6040   -0.2110 H   0  0  0  0  0  0  0  0  0  0  0  0
   -7.7190   26.6210   -0.0050 H   0  0  0  0  0  0  0  0  0  0  0  0
   -8.6620   28.3550   -1.4980 H   0  0  0  0  0  0  0  0  0  0  0  0
  -10.0460   30.3830   -1.2820 H   0  0  0  0  0  0  0  0  0  0  0  0
  -12.5300   30.2920    1.5610 H   0  0  0  0  0  0  0  0  0  0  0  0
  -11.5370   31.5910    0.8580 H   0  0  0  0  0  0  0  0  0  0  0  0
  -13.6030   32.5160    1.9700 H   0  0  0  0  0  0  0  0  0  0  0  0
  -14.6110   31.5380    0.8760 H   0  0  0  0  0  0  0  0  0  0  0  0
  -12.6440   33.5670    0.0120 H   0  0  0  0  0  0  0  0  0  0  0  0
  -15.5760   33.6480    0.0340 H   0  0  0  0  0  0  0  0  0  0  0  0
  -14.5030   34.8940   -0.6490 H   0  0  0  0  0  0  0  0  0  0  0  0
  -14.4990   34.5780    1.1030 H   0  0  0  0  0  0  0  0  0  0  0  0
  -14.6090   31.9560   -1.4940 H   0  0  0  0  0  0  0  0  0  0  0  0
  -13.6180   33.2630   -2.1850 H   0  0  0  0  0  0  0  0  0  0  0  0
  -11.5360   32.0260   -1.4530 H   0  0  0  0  0  0  0  0  0  0  0  0
  -12.5120   31.0590   -2.5840 H   0  0  0  0  0  0  0  0  0  0  0  0
  -14.1360   28.9650   -0.0700 H   0  0  0  0  0  0  0  0  0  0  0  0
  -15.9380   28.7870   -1.3300 H   0  0  0  0  0  0  0  0  0  0  0  0
  -18.2170   29.4580   -1.0920 H   0  0  0  0  0  0  0  0  0  0  0  0
  -18.8330   26.9100    2.1900 H   0  0  0  0  0  0  0  0  0  0  0  0
  -12.0020   25.9180   -0.3470 H   0  0  0  0  0  0  0  0  0  0  0  0
  -10.8800   24.6710   -2.1390 H   0  0  0  0  0  0  0  0  0  0  0  0
   -9.5000   22.6530   -2.3430 H   0  0  0  0  0  0  0  0  0  0  0  0
   10.0930   20.4960    2.1900 H   0  0  0  0  0  0  0  0  0  0  0  0
    9.5790   20.9900    0.5590 H   0  0  0  0  0  0  0  0  0  0  0  0
    9.3880   22.1090    1.9300 H   0  0  0  0  0  0  0  0  0  0  0  0
   12.0220   21.4790    3.2620 H   0  0  0  0  0  0  0  0  0  0  0  0
   11.3390   23.1050    3.0250 H   0  0  0  0  0  0  0  0  0  0  0  0
   12.9890   22.7430    2.4660 H   0  0  0  0  0  0  0  0  0  0  0  0
   12.3110   19.9410    1.4460 H   0  0  0  0  0  0  0  0  0  0  0  0
   13.3210   21.1020    0.5510 H   0  0  0  0  0  0  0  0  0  0  0  0
   11.8970   20.3720   -0.2310 H   0  0  0  0  0  0  0  0  0  0  0  0
   19.3470   26.0030    1.9740 H   0  0  0  0  0  0  0  0  0  0  0  0
   21.4160   25.8970    0.6440 H   0  0  0  0  0  0  0  0  0  0  0  0
   25.6070   23.9800   -1.8530 H   0  0  0  0  0  0  0  0  0  0  0  0
  1  2  1  0  0  0  0
  1 83  1  0  0  0  0
  1 84  1  0  0  0  0
  1 85  1  0  0  0  0
  2  3  2  0  0  0  0
  2 82  1  0  0  0  0
  3  4  1  0  0  0  0
  3 80  1  0  0  0  0
  4  5  1  0  0  0  0
  4 79  2  0  0  0  0
  5  6  2  0  0  0  0
  5 86  1  0  0  0  0
  6  7  1  0  0  0  0
  6 87  1  0  0  0  0
  7  8  1  0  0  0  0
  7 78  2  0  0  0  0
  8  9  1  0  0  0  0
  8 88  1  0  0  0  0
  8 89  1  0  0  0  0
  9 10  1  0  0  0  0
  9 90  1  0  0  0  0
 10 11  2  0  0  0  0
 10 12  1  0  0  0  0
 12 13  1  0  0  0  0
 12 17  1  0  0  0  0
 12 91  1  0  0  0  0
 13 14  1  0  0  0  0
 13 92  1  0  0  0  0
 13 93  1  0  0  0  0
 14 15  1  0  0  0  0
 14 16  1  0  0  0  0
 14 94  1  0  0  0  0
 15 95  1  0  0  0  0
 16 17  1  0  0  0  0
 16 96  1  0  0  0  0
 16 97  1  0  0  0  0
 17 18  1  0  0  0  0
 18 19  2  0  0  0  0
 18 20  1  0  0  0  0
 20 21  1  0  0  0  0
 20 74  1  0  0  0  0
 20 98  1  0  0  0  0
 21 22  1  0  0  0  0
 21 99  1  0  0  0  0
 22 23  2  0  0  0  0
 22 24  1  0  0  0  0
 24 25  1  0  0  0  0
 24100  1  0  0  0  0
 24101  1  0  0  0  0
 25 26  1  0  0  0  0
 25102  1  0  0  0  0
 25103  1  0  0  0  0
 26 27  1  0  0  0  0
 27 28  1  0  0  0  0
 27104  1  0  0  0  0
 27105  1  0  0  0  0
 28 29  1  0  0  0  0
 28106  1  0  0  0  0
 28107  1  0  0  0  0
 29 30  1  0  0  0  0
 30 31  1  0  0  0  0
 30108  1  0  0  0  0
 30109  1  0  0  0  0
 31 32  1  0  0  0  0
 31110  1  0  0  0  0
 31111  1  0  0  0  0
 32 33  1  0  0  0  0
 33 34  1  0  0  0  0
 33112  1  0  0  0  0
 33113  1  0  0  0  0
 34 35  1  0  0  0  0
 34114  1  0  0  0  0
 34115  1  0  0  0  0
 35 36  1  0  0  0  0
 36 37  1  0  0  0  0
 36116  1  0  0  0  0
 36117  1  0  0  0  0
 37 38  1  0  0  0  0
 37118  1  0  0  0  0
 37119  1  0  0  0  0
 38 39  1  0  0  0  0
 38120  1  0  0  0  0
 39 40  2  0  0  0  0
 39 41  1  0  0  0  0
 41 42  1  0  0  0  0
 41 73  2  0  0  0  0
 42 43  2  0  0  0  0
 42121  1  0  0  0  0
 43 44  1  0  0  0  0
 43122  1  0  0  0  0
 44 45  1  0  0  0  0
 44 72  2  0  0  0  0
 45 46  2  0  0  0  0
 45 71  1  0  0  0  0
 46 47  1  0  0  0  0
 46123  1  0  0  0  0
 47 48  2  0  0  0  0
 47124  1  0  0  0  0
 48 49  1  0  0  0  0
 48 56  1  0  0  0  0
 49 50  1  0  0  0  0
 49 55  1  0  0  0  0
 50 51  1  0  0  0  0
 50125  1  0  0  0  0
 50126  1  0  0  0  0
 51 52  1  0  0  0  0
 51127  1  0  0  0  0
 51128  1  0  0  0  0
 52 53  1  0  0  0  0
 52 54  1  0  0  0  0
 52129  1  0  0  0  0
 53130  1  0  0  0  0
 53131  1  0  0  0  0
 53132  1  0  0  0  0
 54 55  1  0  0  0  0
 54133  1  0  0  0  0
 54134  1  0  0  0  0
 55135  1  0  0  0  0
 55136  1  0  0  0  0
 56 57  1  0  0  0  0
 56 71  2  0  0  0  0
 57 58  1  0  0  0  0
 57137  1  0  0  0  0
 58 59  2  0  0  0  0
 58 60  1  0  0  0  0
 60 61  2  0  0  0  0
 60 66  1  0  0  0  0
 61 62  1  0  0  0  0
 61138  1  0  0  0  0
 62 63  1  0  0  0  0
 62139  1  0  0  0  0
 63 64  2  0  0  0  0
 63 65  1  0  0  0  0
 65 66  2  0  0  0  0
 65140  1  0  0  0  0
 66 67  1  0  0  0  0
 67 68  1  0  0  0  0
 67 69  1  0  0  0  0
 67 70  1  0  0  0  0
 71141  1  0  0  0  0
 72 73  1  0  0  0  0
 72142  1  0  0  0  0
 73143  1  0  0  0  0
 74 75  1  0  0  0  0
 74 76  1  0  0  0  0
 74 77  1  0  0  0  0
 75144  1  0  0  0  0
 75145  1  0  0  0  0
 75146  1  0  0  0  0
 76147  1  0  0  0  0
 76148  1  0  0  0  0
 76149  1  0  0  0  0
 77150  1  0  0  0  0
 77151  1  0  0  0  0
 77152  1  0  0  0  0
 78 79  1  0  0  0  0
 78153  1  0  0  0  0
 79154  1  0  0  0  0
 80 81  1  0  0  0  0
 81 82  2  0  0  0  0
 81155  1  0  0  0  0
M  CHG  1  52   1
M  END
>  <Compound ID>
2282

>  <Uniprot>
P61964

>  <Target>
WDR5

>  <E3 ligase>
VHL

>  <Dmax (%)>
N.D.

>  <Article DOI>
10.1021/acs.jmedchem.1c00146

>  <Molecular Weight>
1160.327

>  <Exact Mass>
1159.5024

>  <XLogP3>
3.46

>  <Heavy Atom Count>
82

>  <Ring Count>
7

>  <Hydrogen Bond Acceptor Count>
15

>  <Hydrogen Bond Donor Count>
6

>  <Rotatable Bond Count>
26

>  <Topological Polar Surface Area>
246.09

>  <Molecular Formula>
C58H72F3N9O11S

>  <InChI>
InChI=1S/C58H72F3N9O11S/c1-37-51(82-36-65-37)40-8-6-38(7-9-40)33-64-55(76)48-31-43(71)35-70(48)56(77)52(57(2,3)4)67-49(72)16-22-78-24-26-80-28-29-81-27-25-79-23-17-62-53(74)41-12-10-39(11-13-41)42-14-15-47(69-20-18-68(5)19-21-69)46(30-42)66-54(75)44-34-63-50(73)32-45(44)58(59,60)61/h6-15,30,32,34,36,43,48,52,71H,16-29,31,33,35H2,1-5H3,(H,62,74)(H,63,73)(H,64,76)(H,66,75)(H,67,72)/t43-,48+,52-/m1/s1

>  <InChI Key>
MZOFELXFRDGDBN-GYPJNVOQSA-N

$$$$
2283
  MOE2018           3D

117123  0  0  1  0  0  0  0  0999 V2000
   13.1830   21.2730   -3.4050 C   0  0  0  0  0  0  0  0  0  0  0  0
   12.1020   21.8090   -2.4970 C   0  0  0  0  0  0  0  0  0  0  0  0
   11.5530   21.1280   -1.4400 C   0  0  0  0  0  0  0  0  0  0  0  0
   11.8390   19.7820   -0.9610 C   0  0  0  0  0  0  0  0  0  0  0  0
   11.8280   18.6880   -1.8340 C   0  0  0  0  0  0  0  0  0  0  0  0
   12.1070   17.4060   -1.3720 C   0  0  0  0  0  0  0  0  0  0  0  0
   12.4020   17.1910   -0.0270 C   0  0  0  0  0  0  0  0  0  0  0  0
   12.7030   15.7980    0.4870 C   0  0  0  0  0  0  0  0  0  0  0  0
   11.4230   15.3200    0.9860 N   0  0  0  0  0  0  0  0  0  0  0  0
   11.0700   15.3470    2.2730 C   0  0  0  0  0  0  0  0  0  0  0  0
   11.8850   15.6530    3.1420 O   0  0  0  0  0  0  0  0  0  0  0  0
    9.6190   14.9150    2.6470 C   0  0  2  0  0  0  0  0  0  0  0  0
    9.4490   14.5480    4.1320 C   0  0  0  0  0  0  0  0  0  0  0  0
    8.4040   13.4410    4.1390 C   0  0  1  0  0  0  0  0  0  0  0  0
    7.1060   14.0060    4.1350 O   0  0  0  0  0  0  0  0  0  0  0  0
    8.7190   12.7200    2.8300 C   0  0  0  0  0  0  0  0  0  0  0  0
    9.0590   13.7800    1.8790 N   0  0  0  0  0  0  0  0  0  0  0  0
    8.5830   13.9290    0.6230 C   0  0  0  0  0  0  0  0  0  0  0  0
    8.8070   14.9900    0.0370 O   0  0  0  0  0  0  0  0  0  0  0  0
    7.7380   12.8170   -0.0520 C   0  0  1  0  0  0  0  0  0  0  0  0
    6.3790   13.3450   -0.3200 N   0  0  0  0  0  0  0  0  0  0  0  0
    5.4980   13.6170    0.6900 C   0  0  0  0  0  0  0  0  0  0  0  0
    5.7720   13.1650    1.7990 O   0  0  0  0  0  0  0  0  0  0  0  0
    4.2930   14.4070    0.4150 C   0  0  0  0  0  0  0  0  0  0  0  0
    4.1520   15.1710   -0.7560 C   0  0  0  0  0  0  0  0  0  0  0  0
    2.9910   15.8940   -0.9970 C   0  0  0  0  0  0  0  0  0  0  0  0
    1.9360   15.8880   -0.0770 C   0  0  0  0  0  0  0  0  0  0  0  0
    0.7120   16.6350   -0.3370 C   0  0  0  0  0  0  0  0  0  0  0  0
    0.7620   17.9620   -0.7880 C   0  0  0  0  0  0  0  0  0  0  0  0
   -0.4040   18.6740   -1.0500 C   0  0  0  0  0  0  0  0  0  0  0  0
   -1.6470   18.0760   -0.8570 C   0  0  0  0  0  0  0  0  0  0  0  0
   -2.7860   18.8660   -1.1360 N   0  0  0  0  0  0  0  0  0  0  0  0
   -3.5950   19.1990    0.0710 C   0  0  0  0  0  0  0  0  0  0  0  0
   -4.6700   20.2370   -0.3230 C   0  0  0  0  0  0  0  0  0  0  0  0
   -5.5030   19.6440   -1.4070 N   0  3  0  0  0  0  0  0  0  0  0  0
   -6.6350   20.5380   -1.7010 C   0  0  0  0  0  0  0  0  0  0  0  0
   -4.6430   19.5170   -2.6190 C   0  0  0  0  0  0  0  0  0  0  0  0
   -3.5760   18.4380   -2.3250 C   0  0  0  0  0  0  0  0  0  0  0  0
   -1.7090   16.7430   -0.3880 C   0  0  0  0  0  0  0  0  0  0  0  0
   -2.9890   16.1440   -0.2220 N   0  0  0  0  0  0  0  0  0  0  0  0
   -3.3960   15.1690    0.6580 C   0  0  0  0  0  0  0  0  0  0  0  0
   -2.5940   14.7440    1.4770 O   0  0  0  0  0  0  0  0  0  0  0  0
   -4.7870   14.7300    0.5780 C   0  0  0  0  0  0  0  0  0  0  0  0
   -5.7680   15.6730    0.3300 C   0  0  0  0  0  0  0  0  0  0  0  0
   -7.0880   15.3160    0.2810 N   0  0  0  0  0  0  0  0  0  0  0  0
   -7.5180   14.0380    0.4820 C   0  0  0  0  0  0  0  0  0  0  0  0
   -8.7300   13.8640    0.4270 O   0  0  0  0  0  0  0  0  0  0  0  0
   -6.5240   13.0400    0.7260 C   0  0  0  0  0  0  0  0  0  0  0  0
   -5.1850   13.3430    0.7640 C   0  0  0  0  0  0  0  0  0  0  0  0
   -4.1530   12.2200    0.9880 C   0  0  0  0  0  0  0  0  0  0  0  0
   -3.6900   12.2590    2.2410 F   0  0  0  0  0  0  0  0  0  0  0  0
   -3.1470   12.3250    0.1050 F   0  0  0  0  0  0  0  0  0  0  0  0
   -4.7310   11.0190    0.7980 F   0  0  0  0  0  0  0  0  0  0  0  0
   -0.5380   16.0310   -0.1430 C   0  0  0  0  0  0  0  0  0  0  0  0
    2.0810   15.1400    1.0980 C   0  0  0  0  0  0  0  0  0  0  0  0
    3.2390   14.4130    1.3400 C   0  0  0  0  0  0  0  0  0  0  0  0
    8.3820   12.3170   -1.4010 C   0  0  0  0  0  0  0  0  0  0  0  0
    7.6300   11.0600   -1.8870 C   0  0  0  0  0  0  0  0  0  0  0  0
    9.8490   11.8990   -1.1750 C   0  0  0  0  0  0  0  0  0  0  0  0
    8.3410   13.3430   -2.5570 C   0  0  0  0  0  0  0  0  0  0  0  0
   12.4010   18.2730    0.8520 C   0  0  0  0  0  0  0  0  0  0  0  0
   12.1220   19.5540    0.3900 C   0  0  0  0  0  0  0  0  0  0  0  0
   10.3800   22.1120   -0.6670 S   0  0  0  0  0  0  0  0  0  0  0  0
   10.6960   23.3440   -1.8230 C   0  0  0  0  0  0  0  0  0  0  0  0
   11.6070   23.0550   -2.7080 N   0  0  0  0  0  0  0  0  0  0  0  0
   13.4570   20.2660   -3.0890 H   0  0  0  0  0  0  0  0  0  0  0  0
   14.0580   21.9210   -3.3510 H   0  0  0  0  0  0  0  0  0  0  0  0
   12.8150   21.2450   -4.4310 H   0  0  0  0  0  0  0  0  0  0  0  0
   11.6000   18.8410   -2.8790 H   0  0  0  0  0  0  0  0  0  0  0  0
   12.0950   16.5730   -2.0590 H   0  0  0  0  0  0  0  0  0  0  0  0
   13.4420   15.8320    1.2870 H   0  0  0  0  0  0  0  0  0  0  0  0
   13.0680   15.1590   -0.3170 H   0  0  0  0  0  0  0  0  0  0  0  0
   10.7630   14.9460    0.3200 H   0  0  0  0  0  0  0  0  0  0  0  0
    9.0700   15.8210    2.3900 H   0  0  0  0  0  0  0  0  0  0  0  0
    9.1010   15.4090    4.7030 H   0  0  0  0  0  0  0  0  0  0  0  0
   10.3900   14.1910    4.5500 H   0  0  0  0  0  0  0  0  0  0  0  0
    8.4280   12.7830    5.0080 H   0  0  0  0  0  0  0  0  0  0  0  0
    7.0480   14.5940    3.3790 H   0  0  0  0  0  0  0  0  0  0  0  0
    7.8500   12.1600    2.4840 H   0  0  0  0  0  0  0  0  0  0  0  0
    9.5610   12.0400    2.9610 H   0  0  0  0  0  0  0  0  0  0  0  0
    7.6970   11.9650    0.6260 H   0  0  0  0  0  0  0  0  0  0  0  0
    6.0960   13.5080   -1.2760 H   0  0  0  0  0  0  0  0  0  0  0  0
    4.9560   15.1960   -1.4770 H   0  0  0  0  0  0  0  0  0  0  0  0
    2.9010   16.4690   -1.9070 H   0  0  0  0  0  0  0  0  0  0  0  0
    1.7200   18.4380   -0.9340 H   0  0  0  0  0  0  0  0  0  0  0  0
   -0.3450   19.6930   -1.4040 H   0  0  0  0  0  0  0  0  0  0  0  0
   -4.0770   18.2980    0.4490 H   0  0  0  0  0  0  0  0  0  0  0  0
   -2.9480   19.6160    0.8430 H   0  0  0  0  0  0  0  0  0  0  0  0
   -4.1910   21.1490   -0.6800 H   0  0  0  0  0  0  0  0  0  0  0  0
   -5.2950   20.4690    0.5400 H   0  0  0  0  0  0  0  0  0  0  0  0
   -5.8620   18.7420   -1.1280 H   0  0  0  0  0  0  0  0  0  0  0  0
   -6.2570   21.5150   -2.0040 H   0  0  0  0  0  0  0  0  0  0  0  0
   -7.2530   20.6470   -0.8100 H   0  0  0  0  0  0  0  0  0  0  0  0
   -7.2330   20.1140   -2.5080 H   0  0  0  0  0  0  0  0  0  0  0  0
   -5.2480   19.2170   -3.4740 H   0  0  0  0  0  0  0  0  0  0  0  0
   -4.1590   20.4700   -2.8320 H   0  0  0  0  0  0  0  0  0  0  0  0
   -2.9160   18.3300   -3.1860 H   0  0  0  0  0  0  0  0  0  0  0  0
   -4.0640   17.4850   -2.1190 H   0  0  0  0  0  0  0  0  0  0  0  0
   -3.7070   16.4870   -0.8440 H   0  0  0  0  0  0  0  0  0  0  0  0
   -5.4890   16.7040    0.1730 H   0  0  0  0  0  0  0  0  0  0  0  0
   -7.7740   16.0310    0.0870 H   0  0  0  0  0  0  0  0  0  0  0  0
   -6.8350   12.0180    0.8850 H   0  0  0  0  0  0  0  0  0  0  0  0
   -0.5930   15.0080    0.1980 H   0  0  0  0  0  0  0  0  0  0  0  0
    1.2820   15.1280    1.8250 H   0  0  0  0  0  0  0  0  0  0  0  0
    3.3290   13.8440    2.2540 H   0  0  0  0  0  0  0  0  0  0  0  0
    8.0720   10.7100   -2.8200 H   0  0  0  0  0  0  0  0  0  0  0  0
    6.5810   11.3050   -2.0510 H   0  0  0  0  0  0  0  0  0  0  0  0
    7.7060   10.2770   -1.1330 H   0  0  0  0  0  0  0  0  0  0  0  0
   10.2780   11.5560   -2.1170 H   0  0  0  0  0  0  0  0  0  0  0  0
    9.8880   11.0920   -0.4430 H   0  0  0  0  0  0  0  0  0  0  0  0
   10.4170   12.7530   -0.8060 H   0  0  0  0  0  0  0  0  0  0  0  0
    8.8060   12.9110   -3.4430 H   0  0  0  0  0  0  0  0  0  0  0  0
    8.8830   14.2420   -2.2640 H   0  0  0  0  0  0  0  0  0  0  0  0
    7.3050   13.5990   -2.7790 H   0  0  0  0  0  0  0  0  0  0  0  0
   12.6180   18.1150    1.8980 H   0  0  0  0  0  0  0  0  0  0  0  0
   12.1240   20.3830    1.0820 H   0  0  0  0  0  0  0  0  0  0  0  0
   10.1760   24.2910   -1.8160 H   0  0  0  0  0  0  0  0  0  0  0  0
  1  2  1  0  0  0  0
  1 66  1  0  0  0  0
  1 67  1  0  0  0  0
  1 68  1  0  0  0  0
  2  3  2  0  0  0  0
  2 65  1  0  0  0  0
  3  4  1  0  0  0  0
  3 63  1  0  0  0  0
  4  5  1  0  0  0  0
  4 62  2  0  0  0  0
  5  6  2  0  0  0  0
  5 69  1  0  0  0  0
  6  7  1  0  0  0  0
  6 70  1  0  0  0  0
  7  8  1  0  0  0  0
  7 61  2  0  0  0  0
  8  9  1  0  0  0  0
  8 71  1  0  0  0  0
  8 72  1  0  0  0  0
  9 10  1  0  0  0  0
  9 73  1  0  0  0  0
 10 11  2  0  0  0  0
 10 12  1  0  0  0  0
 12 13  1  0  0  0  0
 12 17  1  0  0  0  0
 12 74  1  0  0  0  0
 13 14  1  0  0  0  0
 13 75  1  0  0  0  0
 13 76  1  0  0  0  0
 14 15  1  0  0  0  0
 14 16  1  0  0  0  0
 14 77  1  0  0  0  0
 15 78  1  0  0  0  0
 16 17  1  0  0  0  0
 16 79  1  0  0  0  0
 16 80  1  0  0  0  0
 17 18  1  0  0  0  0
 18 19  2  0  0  0  0
 18 20  1  0  0  0  0
 20 21  1  0  0  0  0
 20 57  1  0  0  0  0
 20 81  1  0  0  0  0
 21 22  1  0  0  0  0
 21 82  1  0  0  0  0
 22 23  2  0  0  0  0
 22 24  1  0  0  0  0
 24 25  1  0  0  0  0
 24 56  2  0  0  0  0
 25 26  2  0  0  0  0
 25 83  1  0  0  0  0
 26 27  1  0  0  0  0
 26 84  1  0  0  0  0
 27 28  1  0  0  0  0
 27 55  2  0  0  0  0
 28 29  2  0  0  0  0
 28 54  1  0  0  0  0
 29 30  1  0  0  0  0
 29 85  1  0  0  0  0
 30 31  2  0  0  0  0
 30 86  1  0  0  0  0
 31 32  1  0  0  0  0
 31 39  1  0  0  0  0
 32 33  1  0  0  0  0
 32 38  1  0  0  0  0
 33 34  1  0  0  0  0
 33 87  1  0  0  0  0
 33 88  1  0  0  0  0
 34 35  1  0  0  0  0
 34 89  1  0  0  0  0
 34 90  1  0  0  0  0
 35 36  1  0  0  0  0
 35 37  1  0  0  0  0
 35 91  1  0  0  0  0
 36 92  1  0  0  0  0
 36 93  1  0  0  0  0
 36 94  1  0  0  0  0
 37 38  1  0  0  0  0
 37 95  1  0  0  0  0
 37 96  1  0  0  0  0
 38 97  1  0  0  0  0
 38 98  1  0  0  0  0
 39 40  1  0  0  0  0
 39 54  2  0  0  0  0
 40 41  1  0  0  0  0
 40 99  1  0  0  0  0
 41 42  2  0  0  0  0
 41 43  1  0  0  0  0
 43 44  2  0  0  0  0
 43 49  1  0  0  0  0
 44 45  1  0  0  0  0
 44100  1  0  0  0  0
 45 46  1  0  0  0  0
 45101  1  0  0  0  0
 46 47  2  0  0  0  0
 46 48  1  0  0  0  0
 48 49  2  0  0  0  0
 48102  1  0  0  0  0
 49 50  1  0  0  0  0
 50 51  1  0  0  0  0
 50 52  1  0  0  0  0
 50 53  1  0  0  0  0
 54103  1  0  0  0  0
 55 56  1  0  0  0  0
 55104  1  0  0  0  0
 56105  1  0  0  0  0
 57 58  1  0  0  0  0
 57 59  1  0  0  0  0
 57 60  1  0  0  0  0
 58106  1  0  0  0  0
 58107  1  0  0  0  0
 58108  1  0  0  0  0
 59109  1  0  0  0  0
 59110  1  0  0  0  0
 59111  1  0  0  0  0
 60112  1  0  0  0  0
 60113  1  0  0  0  0
 60114  1  0  0  0  0
 61 62  1  0  0  0  0
 61115  1  0  0  0  0
 62116  1  0  0  0  0
 63 64  1  0  0  0  0
 64 65  2  0  0  0  0
 64117  1  0  0  0  0
M  CHG  1  35   1
M  END
>  <Compound ID>
2283

>  <Uniprot>
P61964

>  <Target>
WDR5

>  <E3 ligase>
VHL

>  <Dmax (%)>
N.D.

>  <Article DOI>
10.1021/acs.jmedchem.1c00146

>  <Molecular Weight>
913.03601

>  <Exact Mass>
912.36041

>  <XLogP3>
4.8000002

>  <Heavy Atom Count>
65

>  <Ring Count>
7

>  <Hydrogen Bond Acceptor Count>
10

>  <Hydrogen Bond Donor Count>
5

>  <Rotatable Bond Count>
11

>  <Topological Polar Surface Area>
180.07001

>  <Molecular Formula>
C47H51F3N8O6S

>  <InChI>
InChI=1S/C47H51F3N8O6S/c1-27-40(65-26-53-27)30-8-6-28(7-9-30)23-52-44(63)38-21-33(59)25-58(38)45(64)41(46(2,3)4)55-42(61)31-12-10-29(11-13-31)32-14-15-37(57-18-16-56(5)17-19-57)36(20-32)54-43(62)34-24-51-39(60)22-35(34)47(48,49)50/h6-15,20,22,24,26,33,38,41,59H,16-19,21,23,25H2,1-5H3,(H,51,60)(H,52,63)(H,54,62)(H,55,61)/t33-,38+,41-/m1/s1

>  <InChI Key>
QAANVDJLUGLPQA-OEFLFKSQSA-N

$$$$
2284
  MOE2018           3D

127133  0  0  1  0  0  0  0  0999 V2000
   14.8260   23.0030   -2.9150 C   0  0  0  0  0  0  0  0  0  0  0  0
   14.8440   23.1490   -1.4120 C   0  0  0  0  0  0  0  0  0  0  0  0
   14.9170   22.1090   -0.5200 C   0  0  0  0  0  0  0  0  0  0  0  0
   14.9680   20.6740   -0.7740 C   0  0  0  0  0  0  0  0  0  0  0  0
   14.0470   20.0600   -1.6310 C   0  0  0  0  0  0  0  0  0  0  0  0
   14.0990   18.6910   -1.8700 C   0  0  0  0  0  0  0  0  0  0  0  0
   15.0740   17.9050   -1.2560 C   0  0  0  0  0  0  0  0  0  0  0  0
   15.1350   16.4120   -1.5050 C   0  0  0  0  0  0  0  0  0  0  0  0
   14.3950   15.8320   -0.3940 N   0  0  0  0  0  0  0  0  0  0  0  0
   14.9670   15.3450    0.7090 C   0  0  0  0  0  0  0  0  0  0  0  0
   16.1890   15.2280    0.7840 O   0  0  0  0  0  0  0  0  0  0  0  0
   14.0410   14.8730    1.8730 C   0  0  2  0  0  0  0  0  0  0  0  0
   14.7560   13.9860    2.9070 C   0  0  0  0  0  0  0  0  0  0  0  0
   13.6750   13.0420    3.4130 C   0  0  1  0  0  0  0  0  0  0  0  0
   12.9310   13.6600    4.4460 O   0  0  0  0  0  0  0  0  0  0  0  0
   12.8340   12.8340    2.1550 C   0  0  0  0  0  0  0  0  0  0  0  0
   12.8230   14.1320    1.4780 N   0  0  0  0  0  0  0  0  0  0  0  0
   11.7380   14.7630    0.9740 C   0  0  0  0  0  0  0  0  0  0  0  0
   11.8220   15.9530    0.6650 O   0  0  0  0  0  0  0  0  0  0  0  0
   10.3950   13.9980    0.7490 C   0  0  1  0  0  0  0  0  0  0  0  0
    9.3160   14.5560    1.5700 N   0  0  0  0  0  0  0  0  0  0  0  0
    9.3450   14.5880    2.8970 C   0  0  0  0  0  0  0  0  0  0  0  0
   10.2460   14.0680    3.5480 O   0  0  0  0  0  0  0  0  0  0  0  0
    8.1850   15.2780    3.5890 C   0  0  0  0  0  0  0  0  0  0  0  0
    6.8910   14.4680    3.4220 C   0  0  0  0  0  0  0  0  0  0  0  0
    5.8580   15.3920    2.9340 N   0  0  0  0  0  0  0  0  0  0  0  0
    5.7500   15.7720    1.6190 C   0  0  0  0  0  0  0  0  0  0  0  0
    6.6420   15.4010    0.8610 O   0  0  0  0  0  0  0  0  0  0  0  0
    4.6180   16.5990    1.1820 C   0  0  0  0  0  0  0  0  0  0  0  0
    3.4680   16.7630    1.9720 C   0  0  0  0  0  0  0  0  0  0  0  0
    2.4070   17.5410    1.5270 C   0  0  0  0  0  0  0  0  0  0  0  0
    2.4520   18.1740    0.2780 C   0  0  0  0  0  0  0  0  0  0  0  0
    1.3180   18.9600   -0.1940 C   0  0  0  0  0  0  0  0  0  0  0  0
    1.5050   20.2210   -0.7810 C   0  0  0  0  0  0  0  0  0  0  0  0
    0.4210   20.9640   -1.2380 C   0  0  0  0  0  0  0  0  0  0  0  0
   -0.8740   20.4680   -1.1100 C   0  0  0  0  0  0  0  0  0  0  0  0
   -1.9220   21.2840   -1.5920 N   0  0  0  0  0  0  0  0  0  0  0  0
   -2.6180   20.7620   -2.8020 C   0  0  0  0  0  0  0  0  0  0  0  0
   -3.5740   21.8580   -3.3290 C   0  0  0  0  0  0  0  0  0  0  0  0
   -4.5390   22.1770   -2.2390 N   0  3  0  0  0  0  0  0  0  0  0  0
   -5.5700   23.0950   -2.7500 C   0  0  0  0  0  0  0  0  0  0  0  0
   -3.7800   22.8440   -1.1430 C   0  0  0  0  0  0  0  0  0  0  0  0
   -2.8260   21.7970   -0.5240 C   0  0  0  0  0  0  0  0  0  0  0  0
   -1.0740   19.2050   -0.5060 C   0  0  0  0  0  0  0  0  0  0  0  0
   -2.3990   18.7000   -0.3990 N   0  0  0  0  0  0  0  0  0  0  0  0
   -2.9440   17.8920    0.5720 C   0  0  0  0  0  0  0  0  0  0  0  0
   -2.2500   17.5720    1.5260 O   0  0  0  0  0  0  0  0  0  0  0  0
   -4.3400   17.4960    0.4130 C   0  0  0  0  0  0  0  0  0  0  0  0
   -5.2460   18.4260   -0.0630 C   0  0  0  0  0  0  0  0  0  0  0  0
   -6.5710   18.1090   -0.1960 N   0  0  0  0  0  0  0  0  0  0  0  0
   -7.0780   16.8880    0.1360 C   0  0  0  0  0  0  0  0  0  0  0  0
   -8.2850   16.7470   -0.0190 O   0  0  0  0  0  0  0  0  0  0  0  0
   -6.1610   15.9030    0.6180 C   0  0  0  0  0  0  0  0  0  0  0  0
   -4.8190   16.1640    0.7510 C   0  0  0  0  0  0  0  0  0  0  0  0
   -3.8660   15.0530    1.2350 C   0  0  0  0  0  0  0  0  0  0  0  0
   -3.5240   15.2570    2.5110 F   0  0  0  0  0  0  0  0  0  0  0  0
   -2.7760   14.9960    0.4540 F   0  0  0  0  0  0  0  0  0  0  0  0
   -4.4790   13.8560    1.1580 F   0  0  0  0  0  0  0  0  0  0  0  0
    0.0160   18.4580   -0.0690 C   0  0  0  0  0  0  0  0  0  0  0  0
    3.5990   18.0150   -0.5080 C   0  0  0  0  0  0  0  0  0  0  0  0
    4.6630   17.2410   -0.0640 C   0  0  0  0  0  0  0  0  0  0  0  0
    9.9630   13.8970   -0.7500 C   0  0  0  0  0  0  0  0  0  0  0  0
    9.5370   15.2390   -1.3840 C   0  0  0  0  0  0  0  0  0  0  0  0
   11.1100   13.3150   -1.6020 C   0  0  0  0  0  0  0  0  0  0  0  0
    8.7710   12.9260   -0.8880 C   0  0  0  0  0  0  0  0  0  0  0  0
   15.9870   18.5070   -0.3920 C   0  0  0  0  0  0  0  0  0  0  0  0
   15.9340   19.8750   -0.1530 C   0  0  0  0  0  0  0  0  0  0  0  0
   14.9370   22.7230    1.0810 S   0  0  0  0  0  0  0  0  0  0  0  0
   14.8240   24.3140    0.4400 C   0  0  0  0  0  0  0  0  0  0  0  0
   14.7850   24.3880   -0.8590 N   0  0  0  0  0  0  0  0  0  0  0  0
   14.8800   21.9470   -3.1780 H   0  0  0  0  0  0  0  0  0  0  0  0
   15.6810   23.5280   -3.3410 H   0  0  0  0  0  0  0  0  0  0  0  0
   13.9040   23.4290   -3.3100 H   0  0  0  0  0  0  0  0  0  0  0  0
   13.2870   20.6570   -2.1130 H   0  0  0  0  0  0  0  0  0  0  0  0
   13.3810   18.2340   -2.5350 H   0  0  0  0  0  0  0  0  0  0  0  0
   16.1670   16.0620   -1.5060 H   0  0  0  0  0  0  0  0  0  0  0  0
   14.6650   16.1600   -2.4560 H   0  0  0  0  0  0  0  0  0  0  0  0
   13.3880   15.7960   -0.4620 H   0  0  0  0  0  0  0  0  0  0  0  0
   13.7500   15.8340    2.2960 H   0  0  0  0  0  0  0  0  0  0  0  0
   15.1530   14.5900    3.7230 H   0  0  0  0  0  0  0  0  0  0  0  0
   15.5670   13.4280    2.4400 H   0  0  0  0  0  0  0  0  0  0  0  0
   14.0450   12.1110    3.8440 H   0  0  0  0  0  0  0  0  0  0  0  0
   12.5880   14.4880    4.1010 H   0  0  0  0  0  0  0  0  0  0  0  0
   11.8200   12.5330    2.4190 H   0  0  0  0  0  0  0  0  0  0  0  0
   13.2840   12.0740    1.5160 H   0  0  0  0  0  0  0  0  0  0  0  0
   10.5880   12.9750    1.0720 H   0  0  0  0  0  0  0  0  0  0  0  0
    8.5070   14.9370    1.1010 H   0  0  0  0  0  0  0  0  0  0  0  0
    8.4100   15.3770    4.6510 H   0  0  0  0  0  0  0  0  0  0  0  0
    8.0460   16.2670    3.1530 H   0  0  0  0  0  0  0  0  0  0  0  0
    6.5900   14.0440    4.3800 H   0  0  0  0  0  0  0  0  0  0  0  0
    7.0440   13.6650    2.7010 H   0  0  0  0  0  0  0  0  0  0  0  0
    5.1950   15.7660    3.5980 H   0  0  0  0  0  0  0  0  0  0  0  0
    3.4080   16.2790    2.9360 H   0  0  0  0  0  0  0  0  0  0  0  0
    1.5350   17.6600    2.1530 H   0  0  0  0  0  0  0  0  0  0  0  0
    2.5040   20.6200   -0.8790 H   0  0  0  0  0  0  0  0  0  0  0  0
    0.5850   21.9290   -1.6940 H   0  0  0  0  0  0  0  0  0  0  0  0
   -1.8850   20.5130   -3.5690 H   0  0  0  0  0  0  0  0  0  0  0  0
   -3.1880   19.8700   -2.5420 H   0  0  0  0  0  0  0  0  0  0  0  0
   -4.1100   21.4930   -4.2050 H   0  0  0  0  0  0  0  0  0  0  0  0
   -3.0060   22.7500   -3.5950 H   0  0  0  0  0  0  0  0  0  0  0  0
   -4.9860   21.3360   -1.9020 H   0  0  0  0  0  0  0  0  0  0  0  0
   -5.0960   24.0060   -3.1160 H   0  0  0  0  0  0  0  0  0  0  0  0
   -6.2650   23.3440   -1.9480 H   0  0  0  0  0  0  0  0  0  0  0  0
   -6.1120   22.6150   -3.5650 H   0  0  0  0  0  0  0  0  0  0  0  0
   -3.2050   23.6780   -1.5450 H   0  0  0  0  0  0  0  0  0  0  0  0
   -4.4710   23.2110   -0.3840 H   0  0  0  0  0  0  0  0  0  0  0  0
   -3.4060   20.9730   -0.1070 H   0  0  0  0  0  0  0  0  0  0  0  0
   -2.2350   22.2610    0.2650 H   0  0  0  0  0  0  0  0  0  0  0  0
   -3.0290   18.9730   -1.1400 H   0  0  0  0  0  0  0  0  0  0  0  0
   -4.9040   19.4140   -0.3330 H   0  0  0  0  0  0  0  0  0  0  0  0
   -7.2010   18.8110   -0.5560 H   0  0  0  0  0  0  0  0  0  0  0  0
   -6.5340   14.9250    0.8850 H   0  0  0  0  0  0  0  0  0  0  0  0
   -0.1430   17.4840    0.3700 H   0  0  0  0  0  0  0  0  0  0  0  0
    3.6570   18.5000   -1.4710 H   0  0  0  0  0  0  0  0  0  0  0  0
    5.5380   17.1320   -0.6870 H   0  0  0  0  0  0  0  0  0  0  0  0
    9.2540   15.0760   -2.4240 H   0  0  0  0  0  0  0  0  0  0  0  0
   10.3690   15.9420   -1.3400 H   0  0  0  0  0  0  0  0  0  0  0  0
    8.6880   15.6470   -0.8360 H   0  0  0  0  0  0  0  0  0  0  0  0
   10.7930   13.2510   -2.6430 H   0  0  0  0  0  0  0  0  0  0  0  0
   11.3640   12.3200   -1.2380 H   0  0  0  0  0  0  0  0  0  0  0  0
   11.9830   13.9630   -1.5270 H   0  0  0  0  0  0  0  0  0  0  0  0
    8.4750   12.8600   -1.9350 H   0  0  0  0  0  0  0  0  0  0  0  0
    7.9330   13.2930   -0.2960 H   0  0  0  0  0  0  0  0  0  0  0  0
    9.0630   11.9390   -0.5300 H   0  0  0  0  0  0  0  0  0  0  0  0
   16.7410   17.9060    0.0950 H   0  0  0  0  0  0  0  0  0  0  0  0
   16.6470   20.3270    0.5200 H   0  0  0  0  0  0  0  0  0  0  0  0
   14.7880   25.1900    1.0700 H   0  0  0  0  0  0  0  0  0  0  0  0
  1  2  1  0  0  0  0
  1 71  1  0  0  0  0
  1 72  1  0  0  0  0
  1 73  1  0  0  0  0
  2  3  2  0  0  0  0
  2 70  1  0  0  0  0
  3  4  1  0  0  0  0
  3 68  1  0  0  0  0
  4  5  1  0  0  0  0
  4 67  2  0  0  0  0
  5  6  2  0  0  0  0
  5 74  1  0  0  0  0
  6  7  1  0  0  0  0
  6 75  1  0  0  0  0
  7  8  1  0  0  0  0
  7 66  2  0  0  0  0
  8  9  1  0  0  0  0
  8 76  1  0  0  0  0
  8 77  1  0  0  0  0
  9 10  1  0  0  0  0
  9 78  1  0  0  0  0
 10 11  2  0  0  0  0
 10 12  1  0  0  0  0
 12 13  1  0  0  0  0
 12 17  1  0  0  0  0
 12 79  1  0  0  0  0
 13 14  1  0  0  0  0
 13 80  1  0  0  0  0
 13 81  1  0  0  0  0
 14 15  1  0  0  0  0
 14 16  1  0  0  0  0
 14 82  1  0  0  0  0
 15 83  1  0  0  0  0
 16 17  1  0  0  0  0
 16 84  1  0  0  0  0
 16 85  1  0  0  0  0
 17 18  1  0  0  0  0
 18 19  2  0  0  0  0
 18 20  1  0  0  0  0
 20 21  1  0  0  0  0
 20 62  1  0  0  0  0
 20 86  1  0  0  0  0
 21 22  1  0  0  0  0
 21 87  1  0  0  0  0
 22 23  2  0  0  0  0
 22 24  1  0  0  0  0
 24 25  1  0  0  0  0
 24 88  1  0  0  0  0
 24 89  1  0  0  0  0
 25 26  1  0  0  0  0
 25 90  1  0  0  0  0
 25 91  1  0  0  0  0
 26 27  1  0  0  0  0
 26 92  1  0  0  0  0
 27 28  2  0  0  0  0
 27 29  1  0  0  0  0
 29 30  1  0  0  0  0
 29 61  2  0  0  0  0
 30 31  2  0  0  0  0
 30 93  1  0  0  0  0
 31 32  1  0  0  0  0
 31 94  1  0  0  0  0
 32 33  1  0  0  0  0
 32 60  2  0  0  0  0
 33 34  2  0  0  0  0
 33 59  1  0  0  0  0
 34 35  1  0  0  0  0
 34 95  1  0  0  0  0
 35 36  2  0  0  0  0
 35 96  1  0  0  0  0
 36 37  1  0  0  0  0
 36 44  1  0  0  0  0
 37 38  1  0  0  0  0
 37 43  1  0  0  0  0
 38 39  1  0  0  0  0
 38 97  1  0  0  0  0
 38 98  1  0  0  0  0
 39 40  1  0  0  0  0
 39 99  1  0  0  0  0
 39100  1  0  0  0  0
 40 41  1  0  0  0  0
 40 42  1  0  0  0  0
 40101  1  0  0  0  0
 41102  1  0  0  0  0
 41103  1  0  0  0  0
 41104  1  0  0  0  0
 42 43  1  0  0  0  0
 42105  1  0  0  0  0
 42106  1  0  0  0  0
 43107  1  0  0  0  0
 43108  1  0  0  0  0
 44 45  1  0  0  0  0
 44 59  2  0  0  0  0
 45 46  1  0  0  0  0
 45109  1  0  0  0  0
 46 47  2  0  0  0  0
 46 48  1  0  0  0  0
 48 49  2  0  0  0  0
 48 54  1  0  0  0  0
 49 50  1  0  0  0  0
 49110  1  0  0  0  0
 50 51  1  0  0  0  0
 50111  1  0  0  0  0
 51 52  2  0  0  0  0
 51 53  1  0  0  0  0
 53 54  2  0  0  0  0
 53112  1  0  0  0  0
 54 55  1  0  0  0  0
 55 56  1  0  0  0  0
 55 57  1  0  0  0  0
 55 58  1  0  0  0  0
 59113  1  0  0  0  0
 60 61  1  0  0  0  0
 60114  1  0  0  0  0
 61115  1  0  0  0  0
 62 63  1  0  0  0  0
 62 64  1  0  0  0  0
 62 65  1  0  0  0  0
 63116  1  0  0  0  0
 63117  1  0  0  0  0
 63118  1  0  0  0  0
 64119  1  0  0  0  0
 64120  1  0  0  0  0
 64121  1  0  0  0  0
 65122  1  0  0  0  0
 65123  1  0  0  0  0
 65124  1  0  0  0  0
 66 67  1  0  0  0  0
 66125  1  0  0  0  0
 67126  1  0  0  0  0
 68 69  1  0  0  0  0
 69 70  2  0  0  0  0
 69127  1  0  0  0  0
M  CHG  1  40   1
M  END
>  <Compound ID>
2284

>  <Uniprot>
P61964

>  <Target>
WDR5

>  <E3 ligase>
VHL

>  <Kd (nM, Protac to Target)>
9

>  <Assay (Protac to Target, Kd)>
ITC

>  <Article DOI>
10.1021/acs.jmedchem.1c00146

>  <Molecular Weight>
984.11499

>  <Exact Mass>
983.39752

>  <XLogP3>
4.0500002

>  <Heavy Atom Count>
70

>  <Ring Count>
7

>  <Hydrogen Bond Acceptor Count>
11

>  <Hydrogen Bond Donor Count>
6

>  <Rotatable Bond Count>
14

>  <Topological Polar Surface Area>
209.17

>  <Molecular Formula>
C50H56F3N9O7S

>  <InChI>
InChI=1S/C50H56F3N9O7S/c1-29-43(70-28-57-29)32-8-6-30(7-9-32)25-56-47(68)40-23-35(63)27-62(40)48(69)44(49(2,3)4)59-41(64)16-17-54-45(66)33-12-10-31(11-13-33)34-14-15-39(61-20-18-60(5)19-21-61)38(22-34)58-46(67)36-26-55-42(65)24-37(36)50(51,52)53/h6-15,22,24,26,28,35,40,44,63H,16-21,23,25,27H2,1-5H3,(H,54,66)(H,55,65)(H,56,68)(H,58,67)(H,59,64)/t35-,40+,44-/m1/s1

>  <InChI Key>
YOILXXMNXUOXLA-HOPMZIQWSA-N

>  <DC50 (nM)>
625

>  <Assay (DC50/Dmax)>
Degradation of WDR5-HiBiT in MV4-11 (WDR5-HiBiT) cells after 24 h treatment

$$$$
2285
  MOE2018           3D

130136  0  0  1  0  0  0  0  0999 V2000
    8.6720  -11.9610    1.4050 C   0  0  0  0  0  0  0  0  0  0  0  0
   10.1430  -12.2100    1.1700 C   0  0  0  0  0  0  0  0  0  0  0  0
   10.6680  -13.3320    0.5810 C   0  0  0  0  0  0  0  0  0  0  0  0
    9.9810  -14.4950    0.0340 C   0  0  0  0  0  0  0  0  0  0  0  0
   10.3750  -15.7880    0.3940 C   0  0  0  0  0  0  0  0  0  0  0  0
    9.7310  -16.9010   -0.1340 C   0  0  0  0  0  0  0  0  0  0  0  0
    8.6820  -16.7460   -1.0380 C   0  0  0  0  0  0  0  0  0  0  0  0
    7.9940  -17.9670   -1.6140 C   0  0  0  0  0  0  0  0  0  0  0  0
    6.9520  -18.2850   -0.6500 N   0  0  0  0  0  0  0  0  0  0  0  0
    7.0960  -19.1820    0.3290 C   0  0  0  0  0  0  0  0  0  0  0  0
    8.0980  -19.8900    0.4040 O   0  0  0  0  0  0  0  0  0  0  0  0
    5.8990  -19.3610    1.3060 C   0  0  2  0  0  0  0  0  0  0  0  0
    6.0830  -20.4570    2.3600 C   0  0  0  0  0  0  0  0  0  0  0  0
    5.5340  -21.7090    1.6790 C   0  0  1  0  0  0  0  0  0  0  0  0
    5.0120  -22.5840    2.6580 O   0  0  0  0  0  0  0  0  0  0  0  0
    4.4460  -21.1770    0.7350 C   0  0  0  0  0  0  0  0  0  0  0  0
    4.6640  -19.7370    0.6090 N   0  0  0  0  0  0  0  0  0  0  0  0
    3.9010  -18.8480   -0.0570 C   0  0  0  0  0  0  0  0  0  0  0  0
    4.2030  -17.6530   -0.0340 O   0  0  0  0  0  0  0  0  0  0  0  0
    2.6800  -19.3220   -0.8990 C   0  0  1  0  0  0  0  0  0  0  0  0
    1.5050  -18.4790   -0.6230 N   0  0  0  0  0  0  0  0  0  0  0  0
    0.3070  -18.9610   -0.3100 C   0  0  0  0  0  0  0  0  0  0  0  0
    0.1050  -20.1640   -0.1990 O   0  0  0  0  0  0  0  0  0  0  0  0
   -0.8110  -17.9430   -0.0920 C   0  0  0  0  0  0  0  0  0  0  0  0
   -2.2000  -18.5880    0.0740 C   0  0  0  0  0  0  0  0  0  0  0  0
   -3.2930  -17.5330    0.2480 C   0  0  0  0  0  0  0  0  0  0  0  0
   -4.5320  -18.2960    0.3350 N   0  0  0  0  0  0  0  0  0  0  0  0
   -5.7680  -17.7270    0.1780 C   0  0  0  0  0  0  0  0  0  0  0  0
   -5.8050  -16.5180   -0.0190 O   0  0  0  0  0  0  0  0  0  0  0  0
   -6.9610  -18.5790    0.2240 C   0  0  0  0  0  0  0  0  0  0  0  0
   -6.9550  -19.8240    0.8730 C   0  0  0  0  0  0  0  0  0  0  0  0
   -8.0880  -20.6280    0.8780 C   0  0  0  0  0  0  0  0  0  0  0  0
   -9.2650  -20.2160    0.2390 C   0  0  0  0  0  0  0  0  0  0  0  0
  -10.4490  -21.0680    0.2290 C   0  0  0  0  0  0  0  0  0  0  0  0
  -10.3410  -22.4370   -0.0580 C   0  0  0  0  0  0  0  0  0  0  0  0
  -11.4650  -23.2580   -0.0690 C   0  0  0  0  0  0  0  0  0  0  0  0
  -12.7230  -22.7240    0.1980 C   0  0  0  0  0  0  0  0  0  0  0  0
  -13.8170  -23.6180    0.1520 N   0  0  0  0  0  0  0  0  0  0  0  0
  -14.4670  -23.8950    1.4640 C   0  0  0  0  0  0  0  0  0  0  0  0
  -15.4850  -25.0430    1.2740 C   0  0  0  0  0  0  0  0  0  0  0  0
  -16.4770  -24.6010    0.2520 N   0  3  0  0  0  0  0  0  0  0  0  0
  -17.5610  -25.5930    0.1620 C   0  0  0  0  0  0  0  0  0  0  0  0
  -15.7700  -24.5200   -1.0580 C   0  0  0  0  0  0  0  0  0  0  0  0
  -14.7540  -23.3570   -0.9770 C   0  0  0  0  0  0  0  0  0  0  0  0
  -12.8450  -21.3430    0.4780 C   0  0  0  0  0  0  0  0  0  0  0  0
  -14.1380  -20.8280    0.7690 N   0  0  0  0  0  0  0  0  0  0  0  0
  -14.6610  -19.5800    0.5230 C   0  0  0  0  0  0  0  0  0  0  0  0
  -13.9630  -18.7560   -0.0490 O   0  0  0  0  0  0  0  0  0  0  0  0
  -16.0430  -19.3380    0.9320 C   0  0  0  0  0  0  0  0  0  0  0  0
  -16.9670  -20.3570    0.7880 C   0  0  0  0  0  0  0  0  0  0  0  0
  -18.2800  -20.1680    1.1250 N   0  0  0  0  0  0  0  0  0  0  0  0
  -18.7590  -18.9840    1.6020 C   0  0  0  0  0  0  0  0  0  0  0  0
  -19.9590  -18.9500    1.8480 O   0  0  0  0  0  0  0  0  0  0  0  0
  -17.8230  -17.9170    1.7750 C   0  0  0  0  0  0  0  0  0  0  0  0
  -16.4910  -18.0630    1.4710 C   0  0  0  0  0  0  0  0  0  0  0  0
  -15.5190  -16.8930    1.7180 C   0  0  0  0  0  0  0  0  0  0  0  0
  -16.1010  -15.9700    2.5080 F   0  0  0  0  0  0  0  0  0  0  0  0
  -14.4190  -17.3250    2.3520 F   0  0  0  0  0  0  0  0  0  0  0  0
  -15.2010  -16.3020    0.5620 F   0  0  0  0  0  0  0  0  0  0  0  0
  -11.7140  -20.5310    0.5050 C   0  0  0  0  0  0  0  0  0  0  0  0
   -9.2780  -18.9640   -0.3900 C   0  0  0  0  0  0  0  0  0  0  0  0
   -8.1470  -18.1580   -0.3940 C   0  0  0  0  0  0  0  0  0  0  0  0
    2.9690  -19.3790   -2.4380 C   0  0  0  0  0  0  0  0  0  0  0  0
    1.7660  -19.9810   -3.1950 C   0  0  0  0  0  0  0  0  0  0  0  0
    4.1730  -20.2890   -2.7530 C   0  0  0  0  0  0  0  0  0  0  0  0
    3.2580  -17.9960   -3.0600 C   0  0  0  0  0  0  0  0  0  0  0  0
    8.2760  -15.4620   -1.3980 C   0  0  0  0  0  0  0  0  0  0  0  0
    8.9220  -14.3490   -0.8700 C   0  0  0  0  0  0  0  0  0  0  0  0
   12.3790  -13.2150    0.5390 S   0  0  0  0  0  0  0  0  0  0  0  0
   12.2610  -11.6710    1.2860 C   0  0  0  0  0  0  0  0  0  0  0  0
   11.0500  -11.2760    1.5560 N   0  0  0  0  0  0  0  0  0  0  0  0
    8.0960  -12.8090    1.0350 H   0  0  0  0  0  0  0  0  0  0  0  0
    8.3680  -11.0570    0.8770 H   0  0  0  0  0  0  0  0  0  0  0  0
    8.4910  -11.8360    2.4730 H   0  0  0  0  0  0  0  0  0  0  0  0
   11.1890  -15.9230    1.0900 H   0  0  0  0  0  0  0  0  0  0  0  0
   10.0460  -17.8920    0.1580 H   0  0  0  0  0  0  0  0  0  0  0  0
    8.6960  -18.7950   -1.7100 H   0  0  0  0  0  0  0  0  0  0  0  0
    7.5620  -17.7420   -2.5890 H   0  0  0  0  0  0  0  0  0  0  0  0
    6.0690  -17.8000   -0.7250 H   0  0  0  0  0  0  0  0  0  0  0  0
    5.8440  -18.3810    1.7810 H   0  0  0  0  0  0  0  0  0  0  0  0
    5.5180  -20.2260    3.2630 H   0  0  0  0  0  0  0  0  0  0  0  0
    7.1360  -20.5810    2.6120 H   0  0  0  0  0  0  0  0  0  0  0  0
    6.2840  -22.2800    1.1320 H   0  0  0  0  0  0  0  0  0  0  0  0
    4.3470  -22.1010    3.1540 H   0  0  0  0  0  0  0  0  0  0  0  0
    3.4580  -21.3720    1.1530 H   0  0  0  0  0  0  0  0  0  0  0  0
    4.5290  -21.6560   -0.2410 H   0  0  0  0  0  0  0  0  0  0  0  0
    2.4720  -20.3460   -0.5900 H   0  0  0  0  0  0  0  0  0  0  0  0
    1.6160  -17.4760   -0.6750 H   0  0  0  0  0  0  0  0  0  0  0  0
   -0.5860  -17.3700    0.8070 H   0  0  0  0  0  0  0  0  0  0  0  0
   -0.8410  -17.2730   -0.9510 H   0  0  0  0  0  0  0  0  0  0  0  0
   -2.1880  -19.2330    0.9530 H   0  0  0  0  0  0  0  0  0  0  0  0
   -2.4210  -19.1840   -0.8110 H   0  0  0  0  0  0  0  0  0  0  0  0
   -3.3160  -16.8580   -0.6080 H   0  0  0  0  0  0  0  0  0  0  0  0
   -3.1310  -16.9580    1.1600 H   0  0  0  0  0  0  0  0  0  0  0  0
   -4.4770  -19.2880    0.5190 H   0  0  0  0  0  0  0  0  0  0  0  0
   -6.0590  -20.1610    1.3740 H   0  0  0  0  0  0  0  0  0  0  0  0
   -8.0610  -21.5830    1.3810 H   0  0  0  0  0  0  0  0  0  0  0  0
   -9.3710  -22.8600   -0.2740 H   0  0  0  0  0  0  0  0  0  0  0  0
  -11.3610  -24.3110   -0.2850 H   0  0  0  0  0  0  0  0  0  0  0  0
  -13.7120  -24.1900    2.1930 H   0  0  0  0  0  0  0  0  0  0  0  0
  -14.9820  -23.0010    1.8150 H   0  0  0  0  0  0  0  0  0  0  0  0
  -15.9900  -25.2510    2.2170 H   0  0  0  0  0  0  0  0  0  0  0  0
  -14.9720  -25.9410    0.9300 H   0  0  0  0  0  0  0  0  0  0  0  0
  -16.8710  -23.7050    0.5010 H   0  0  0  0  0  0  0  0  0  0  0  0
  -17.1440  -26.5640   -0.1070 H   0  0  0  0  0  0  0  0  0  0  0  0
  -18.2760  -25.2820   -0.5990 H   0  0  0  0  0  0  0  0  0  0  0  0
  -18.0660  -25.6680    1.1250 H   0  0  0  0  0  0  0  0  0  0  0  0
  -15.2470  -25.4560   -1.2550 H   0  0  0  0  0  0  0  0  0  0  0  0
  -16.4880  -24.3300   -1.8560 H   0  0  0  0  0  0  0  0  0  0  0  0
  -15.2830  -22.4190   -0.8050 H   0  0  0  0  0  0  0  0  0  0  0  0
  -14.1950  -23.2930   -1.9100 H   0  0  0  0  0  0  0  0  0  0  0  0
  -14.7660  -21.4750    1.2240 H   0  0  0  0  0  0  0  0  0  0  0  0
  -16.6480  -21.3150    0.4040 H   0  0  0  0  0  0  0  0  0  0  0  0
  -18.9220  -20.9400    1.0150 H   0  0  0  0  0  0  0  0  0  0  0  0
  -18.1730  -16.9690    2.1560 H   0  0  0  0  0  0  0  0  0  0  0  0
  -11.8120  -19.4810    0.7400 H   0  0  0  0  0  0  0  0  0  0  0  0
  -10.1790  -18.6220   -0.8780 H   0  0  0  0  0  0  0  0  0  0  0  0
   -8.1820  -17.1940   -0.8800 H   0  0  0  0  0  0  0  0  0  0  0  0
    1.9870  -20.0120   -4.2620 H   0  0  0  0  0  0  0  0  0  0  0  0
    0.8840  -19.3640   -3.0240 H   0  0  0  0  0  0  0  0  0  0  0  0
    1.5780  -20.9920   -2.8330 H   0  0  0  0  0  0  0  0  0  0  0  0
    4.3450  -20.3050   -3.8290 H   0  0  0  0  0  0  0  0  0  0  0  0
    3.9650  -21.3000   -2.4030 H   0  0  0  0  0  0  0  0  0  0  0  0
    5.0600  -19.9050   -2.2490 H   0  0  0  0  0  0  0  0  0  0  0  0
    3.4490  -18.1100   -4.1270 H   0  0  0  0  0  0  0  0  0  0  0  0
    4.1320  -17.5570   -2.5790 H   0  0  0  0  0  0  0  0  0  0  0  0
    2.3970  -17.3440   -2.9130 H   0  0  0  0  0  0  0  0  0  0  0  0
    7.4570  -15.3310   -2.0890 H   0  0  0  0  0  0  0  0  0  0  0  0
    8.6020  -13.3590   -1.1610 H   0  0  0  0  0  0  0  0  0  0  0  0
   13.1300  -11.0710    1.5150 H   0  0  0  0  0  0  0  0  0  0  0  0
  1  2  1  0  0  0  0
  1 72  1  0  0  0  0
  1 73  1  0  0  0  0
  1 74  1  0  0  0  0
  2  3  2  0  0  0  0
  2 71  1  0  0  0  0
  3  4  1  0  0  0  0
  3 69  1  0  0  0  0
  4  5  1  0  0  0  0
  4 68  2  0  0  0  0
  5  6  2  0  0  0  0
  5 75  1  0  0  0  0
  6  7  1  0  0  0  0
  6 76  1  0  0  0  0
  7  8  1  0  0  0  0
  7 67  2  0  0  0  0
  8  9  1  0  0  0  0
  8 77  1  0  0  0  0
  8 78  1  0  0  0  0
  9 10  1  0  0  0  0
  9 79  1  0  0  0  0
 10 11  2  0  0  0  0
 10 12  1  0  0  0  0
 12 13  1  0  0  0  0
 12 17  1  0  0  0  0
 12 80  1  0  0  0  0
 13 14  1  0  0  0  0
 13 81  1  0  0  0  0
 13 82  1  0  0  0  0
 14 15  1  0  0  0  0
 14 16  1  0  0  0  0
 14 83  1  0  0  0  0
 15 84  1  0  0  0  0
 16 17  1  0  0  0  0
 16 85  1  0  0  0  0
 16 86  1  0  0  0  0
 17 18  1  0  0  0  0
 18 19  2  0  0  0  0
 18 20  1  0  0  0  0
 20 21  1  0  0  0  0
 20 63  1  0  0  0  0
 20 87  1  0  0  0  0
 21 22  1  0  0  0  0
 21 88  1  0  0  0  0
 22 23  2  0  0  0  0
 22 24  1  0  0  0  0
 24 25  1  0  0  0  0
 24 89  1  0  0  0  0
 24 90  1  0  0  0  0
 25 26  1  0  0  0  0
 25 91  1  0  0  0  0
 25 92  1  0  0  0  0
 26 27  1  0  0  0  0
 26 93  1  0  0  0  0
 26 94  1  0  0  0  0
 27 28  1  0  0  0  0
 27 95  1  0  0  0  0
 28 29  2  0  0  0  0
 28 30  1  0  0  0  0
 30 31  1  0  0  0  0
 30 62  2  0  0  0  0
 31 32  2  0  0  0  0
 31 96  1  0  0  0  0
 32 33  1  0  0  0  0
 32 97  1  0  0  0  0
 33 34  1  0  0  0  0
 33 61  2  0  0  0  0
 34 35  2  0  0  0  0
 34 60  1  0  0  0  0
 35 36  1  0  0  0  0
 35 98  1  0  0  0  0
 36 37  2  0  0  0  0
 36 99  1  0  0  0  0
 37 38  1  0  0  0  0
 37 45  1  0  0  0  0
 38 39  1  0  0  0  0
 38 44  1  0  0  0  0
 39 40  1  0  0  0  0
 39100  1  0  0  0  0
 39101  1  0  0  0  0
 40 41  1  0  0  0  0
 40102  1  0  0  0  0
 40103  1  0  0  0  0
 41 42  1  0  0  0  0
 41 43  1  0  0  0  0
 41104  1  0  0  0  0
 42105  1  0  0  0  0
 42106  1  0  0  0  0
 42107  1  0  0  0  0
 43 44  1  0  0  0  0
 43108  1  0  0  0  0
 43109  1  0  0  0  0
 44110  1  0  0  0  0
 44111  1  0  0  0  0
 45 46  1  0  0  0  0
 45 60  2  0  0  0  0
 46 47  1  0  0  0  0
 46112  1  0  0  0  0
 47 48  2  0  0  0  0
 47 49  1  0  0  0  0
 49 50  2  0  0  0  0
 49 55  1  0  0  0  0
 50 51  1  0  0  0  0
 50113  1  0  0  0  0
 51 52  1  0  0  0  0
 51114  1  0  0  0  0
 52 53  2  0  0  0  0
 52 54  1  0  0  0  0
 54 55  2  0  0  0  0
 54115  1  0  0  0  0
 55 56  1  0  0  0  0
 56 57  1  0  0  0  0
 56 58  1  0  0  0  0
 56 59  1  0  0  0  0
 60116  1  0  0  0  0
 61 62  1  0  0  0  0
 61117  1  0  0  0  0
 62118  1  0  0  0  0
 63 64  1  0  0  0  0
 63 65  1  0  0  0  0
 63 66  1  0  0  0  0
 64119  1  0  0  0  0
 64120  1  0  0  0  0
 64121  1  0  0  0  0
 65122  1  0  0  0  0
 65123  1  0  0  0  0
 65124  1  0  0  0  0
 66125  1  0  0  0  0
 66126  1  0  0  0  0
 66127  1  0  0  0  0
 67 68  1  0  0  0  0
 67128  1  0  0  0  0
 68129  1  0  0  0  0
 69 70  1  0  0  0  0
 70 71  2  0  0  0  0
 70130  1  0  0  0  0
M  CHG  1  41   1
M  END
>  <Compound ID>
2285

>  <Uniprot>
P61964

>  <Target>
WDR5

>  <E3 ligase>
VHL

>  <Kd (nM, Protac to Target)>
6

>  <Assay (Protac to Target, Kd)>
ITC

>  <Article DOI>
10.1021/acs.jmedchem.1c00146

>  <Molecular Weight>
998.14203

>  <Exact Mass>
997.41321

>  <XLogP3>
4.4099998

>  <Heavy Atom Count>
71

>  <Ring Count>
7

>  <Hydrogen Bond Acceptor Count>
11

>  <Hydrogen Bond Donor Count>
6

>  <Rotatable Bond Count>
15

>  <Topological Polar Surface Area>
209.17

>  <Molecular Formula>
C51H58F3N9O7S

>  <InChI>
InChI=1S/C51H58F3N9O7S/c1-30-44(71-29-58-30)33-10-8-31(9-11-33)26-57-48(69)41-24-36(64)28-63(41)49(70)45(50(2,3)4)60-42(65)7-6-18-55-46(67)34-14-12-32(13-15-34)35-16-17-40(62-21-19-61(5)20-22-62)39(23-35)59-47(68)37-27-56-43(66)25-38(37)51(52,53)54/h8-17,23,25,27,29,36,41,45,64H,6-7,18-22,24,26,28H2,1-5H3,(H,55,67)(H,56,66)(H,57,69)(H,59,68)(H,60,65)/t36-,41+,45-/m1/s1

>  <InChI Key>
KFCLTULBYCCZBG-LTJJNQLXSA-N

>  <DC50 (nM)>
116

>  <Assay (DC50/Dmax)>
Degradation of WDR5-HiBiT in MV4-11 (WDR5-HiBiT) cells after 24 h treatment

$$$$
2286
  MOE2018           3D

133139  0  0  1  0  0  0  0  0999 V2000
   22.9430   23.6920   -2.3880 C   0  0  0  0  0  0  0  0  0  0  0  0
   22.4820   24.3300   -1.0980 C   0  0  0  0  0  0  0  0  0  0  0  0
   21.4080   23.9140   -0.3520 C   0  0  0  0  0  0  0  0  0  0  0  0
   20.4720   22.8260   -0.6080 C   0  0  0  0  0  0  0  0  0  0  0  0
   20.1790   21.8910    0.3900 C   0  0  0  0  0  0  0  0  0  0  0  0
   19.2900   20.8500    0.1510 C   0  0  0  0  0  0  0  0  0  0  0  0
   18.6700   20.7220   -1.0920 C   0  0  0  0  0  0  0  0  0  0  0  0
   17.6980   19.5860   -1.3360 C   0  0  0  0  0  0  0  0  0  0  0  0
   16.4560   20.0440   -0.7240 N   0  0  0  0  0  0  0  0  0  0  0  0
   16.0310   19.6150    0.4690 C   0  0  0  0  0  0  0  0  0  0  0  0
   16.6670   18.7790    1.1120 O   0  0  0  0  0  0  0  0  0  0  0  0
   14.7690   20.2830    1.0750 C   0  0  2  0  0  0  0  0  0  0  0  0
   15.0950   21.1610    2.2940 C   0  0  0  0  0  0  0  0  0  0  0  0
   13.9530   20.9020    3.2720 C   0  0  1  0  0  0  0  0  0  0  0  0
   12.8670   21.7640    2.9840 O   0  0  0  0  0  0  0  0  0  0  0  0
   13.6050   19.4450    2.9740 C   0  0  0  0  0  0  0  0  0  0  0  0
   13.7590   19.3230    1.5280 N   0  0  0  0  0  0  0  0  0  0  0  0
   12.9260   18.7420    0.6410 C   0  0  0  0  0  0  0  0  0  0  0  0
   13.0780   18.9560   -0.5630 O   0  0  0  0  0  0  0  0  0  0  0  0
   11.7670   17.8220    1.1320 C   0  0  1  0  0  0  0  0  0  0  0  0
   10.4500   18.3820    0.7970 N   0  0  0  0  0  0  0  0  0  0  0  0
    9.9920   19.5130    1.3230 C   0  0  0  0  0  0  0  0  0  0  0  0
   10.6310   20.1580    2.1470 O   0  0  0  0  0  0  0  0  0  0  0  0
    8.5920   19.9520    0.9160 C   0  0  0  0  0  0  0  0  0  0  0  0
    7.5120   19.1020    1.6060 C   0  0  0  0  0  0  0  0  0  0  0  0
    6.0980   19.5610    1.2250 C   0  0  0  0  0  0  0  0  0  0  0  0
    5.0650   18.6680    1.9160 C   0  0  0  0  0  0  0  0  0  0  0  0
    3.7640   19.1680    1.4790 N   0  0  0  0  0  0  0  0  0  0  0  0
    2.6480   18.3710    1.4450 C   0  0  0  0  0  0  0  0  0  0  0  0
    2.8020   17.1790    1.6890 O   0  0  0  0  0  0  0  0  0  0  0  0
    1.3410   18.9680    1.1490 C   0  0  0  0  0  0  0  0  0  0  0  0
    1.2180   20.2100    0.5040 C   0  0  0  0  0  0  0  0  0  0  0  0
   -0.0330   20.7620    0.2570 C   0  0  0  0  0  0  0  0  0  0  0  0
   -1.2020   20.0910    0.6390 C   0  0  0  0  0  0  0  0  0  0  0  0
   -2.5170   20.6700    0.3900 C   0  0  0  0  0  0  0  0  0  0  0  0
   -2.7830   22.0110    0.7080 C   0  0  0  0  0  0  0  0  0  0  0  0
   -4.0400   22.5640    0.4840 C   0  0  0  0  0  0  0  0  0  0  0  0
   -5.0610   21.7870   -0.0560 C   0  0  0  0  0  0  0  0  0  0  0  0
   -6.3170   22.4140   -0.2280 N   0  0  0  0  0  0  0  0  0  0  0  0
   -7.3800   21.8720    0.6650 C   0  0  0  0  0  0  0  0  0  0  0  0
   -8.6310   22.7740    0.5510 C   0  0  0  0  0  0  0  0  0  0  0  0
   -9.0540   22.7890   -0.8780 N   0  3  0  0  0  0  0  0  0  0  0  0
  -10.3330   23.5080   -1.0020 C   0  0  0  0  0  0  0  0  0  0  0  0
   -8.0030   23.5100   -1.6520 C   0  0  0  0  0  0  0  0  0  0  0  0
   -6.7300   22.6330   -1.6430 C   0  0  0  0  0  0  0  0  0  0  0  0
   -4.8050   20.4340   -0.3800 C   0  0  0  0  0  0  0  0  0  0  0  0
   -5.8550   19.6710   -0.9610 N   0  0  0  0  0  0  0  0  0  0  0  0
   -6.1160   18.3240   -0.8760 C   0  0  0  0  0  0  0  0  0  0  0  0
   -5.3850   17.6280   -0.1870 O   0  0  0  0  0  0  0  0  0  0  0  0
   -7.2850   17.8190   -1.5920 C   0  0  0  0  0  0  0  0  0  0  0  0
   -8.4320   18.5930   -1.6220 C   0  0  0  0  0  0  0  0  0  0  0  0
   -9.5630   18.1490   -2.2510 N   0  0  0  0  0  0  0  0  0  0  0  0
   -9.6400   16.9340   -2.8660 C   0  0  0  0  0  0  0  0  0  0  0  0
  -10.7200   16.6580   -3.3750 O   0  0  0  0  0  0  0  0  0  0  0  0
   -8.4660   16.1190   -2.8630 C   0  0  0  0  0  0  0  0  0  0  0  0
   -7.3000   16.5280   -2.2630 C   0  0  0  0  0  0  0  0  0  0  0  0
   -6.0520   15.6260   -2.3280 C   0  0  0  0  0  0  0  0  0  0  0  0
   -6.2220   14.6700   -3.2600 F   0  0  0  0  0  0  0  0  0  0  0  0
   -5.8550   15.0220   -1.1520 F   0  0  0  0  0  0  0  0  0  0  0  0
   -4.9740   16.3430   -2.6810 F   0  0  0  0  0  0  0  0  0  0  0  0
   -3.5410   19.8900   -0.1670 C   0  0  0  0  0  0  0  0  0  0  0  0
   -1.0810   18.8450    1.2660 C   0  0  0  0  0  0  0  0  0  0  0  0
    0.1680   18.2920    1.5140 C   0  0  0  0  0  0  0  0  0  0  0  0
   11.8760   16.3390    0.6500 C   0  0  0  0  0  0  0  0  0  0  0  0
   10.8300   15.4690    1.3800 C   0  0  0  0  0  0  0  0  0  0  0  0
   13.2610   15.7630    1.0070 C   0  0  0  0  0  0  0  0  0  0  0  0
   11.6580   16.1450   -0.8650 C   0  0  0  0  0  0  0  0  0  0  0  0
   18.9480   21.6550   -2.0900 C   0  0  0  0  0  0  0  0  0  0  0  0
   19.8380   22.6960   -1.8500 C   0  0  0  0  0  0  0  0  0  0  0  0
   21.2600   24.8990    1.0440 S   0  0  0  0  0  0  0  0  0  0  0  0
   22.6230   25.8020    0.5160 C   0  0  0  0  0  0  0  0  0  0  0  0
   23.1540   25.4010   -0.6030 N   0  0  0  0  0  0  0  0  0  0  0  0
   22.2910   22.8530   -2.6310 H   0  0  0  0  0  0  0  0  0  0  0  0
   23.9660   23.3360   -2.2720 H   0  0  0  0  0  0  0  0  0  0  0  0
   22.9040   24.4280   -3.1910 H   0  0  0  0  0  0  0  0  0  0  0  0
   20.6490   21.9790    1.3580 H   0  0  0  0  0  0  0  0  0  0  0  0
   19.0780   20.1360    0.9330 H   0  0  0  0  0  0  0  0  0  0  0  0
   18.0480   18.6690   -0.8620 H   0  0  0  0  0  0  0  0  0  0  0  0
   17.5630   19.4150   -2.4040 H   0  0  0  0  0  0  0  0  0  0  0  0
   15.8910   20.7160   -1.2240 H   0  0  0  0  0  0  0  0  0  0  0  0
   14.3790   20.8800    0.2500 H   0  0  0  0  0  0  0  0  0  0  0  0
   15.1290   22.2130    2.0120 H   0  0  0  0  0  0  0  0  0  0  0  0
   16.0500   20.8710    2.7320 H   0  0  0  0  0  0  0  0  0  0  0  0
   14.2010   21.0790    4.3190 H   0  0  0  0  0  0  0  0  0  0  0  0
   12.6260   21.6300    2.0650 H   0  0  0  0  0  0  0  0  0  0  0  0
   12.5800   19.2240    3.2730 H   0  0  0  0  0  0  0  0  0  0  0  0
   14.2870   18.7720    3.4930 H   0  0  0  0  0  0  0  0  0  0  0  0
   11.8730   17.7930    2.2160 H   0  0  0  0  0  0  0  0  0  0  0  0
    9.8680   17.8850    0.1380 H   0  0  0  0  0  0  0  0  0  0  0  0
    8.4530   20.9960    1.1950 H   0  0  0  0  0  0  0  0  0  0  0  0
    8.4880   19.8480   -0.1640 H   0  0  0  0  0  0  0  0  0  0  0  0
    7.6380   18.0610    1.3080 H   0  0  0  0  0  0  0  0  0  0  0  0
    7.6320   19.1870    2.6860 H   0  0  0  0  0  0  0  0  0  0  0  0
    5.9730   19.4910    0.1440 H   0  0  0  0  0  0  0  0  0  0  0  0
    5.9540   20.5940    1.5420 H   0  0  0  0  0  0  0  0  0  0  0  0
    5.1590   18.7450    2.9990 H   0  0  0  0  0  0  0  0  0  0  0  0
    5.1960   17.6290    1.6130 H   0  0  0  0  0  0  0  0  0  0  0  0
    3.6830   20.1330    1.1920 H   0  0  0  0  0  0  0  0  0  0  0  0
    2.1060   20.7420    0.1970 H   0  0  0  0  0  0  0  0  0  0  0  0
   -0.1050   21.7200   -0.2360 H   0  0  0  0  0  0  0  0  0  0  0  0
   -2.0010   22.6220    1.1330 H   0  0  0  0  0  0  0  0  0  0  0  0
   -4.2240   23.5990    0.7300 H   0  0  0  0  0  0  0  0  0  0  0  0
   -7.6320   20.8560    0.3610 H   0  0  0  0  0  0  0  0  0  0  0  0
   -7.0250   21.8660    1.6960 H   0  0  0  0  0  0  0  0  0  0  0  0
   -8.3890   23.7860    0.8770 H   0  0  0  0  0  0  0  0  0  0  0  0
   -9.4340   22.3750    1.1710 H   0  0  0  0  0  0  0  0  0  0  0  0
   -9.1710   21.8480   -1.2260 H   0  0  0  0  0  0  0  0  0  0  0  0
  -10.2160   24.5250   -0.6290 H   0  0  0  0  0  0  0  0  0  0  0  0
  -11.0970   22.9930   -0.4200 H   0  0  0  0  0  0  0  0  0  0  0  0
  -10.6330   23.5380   -2.0490 H   0  0  0  0  0  0  0  0  0  0  0  0
   -8.3390   23.6670   -2.6770 H   0  0  0  0  0  0  0  0  0  0  0  0
   -7.7940   24.4730   -1.1870 H   0  0  0  0  0  0  0  0  0  0  0  0
   -5.9310   23.1390   -2.1850 H   0  0  0  0  0  0  0  0  0  0  0  0
   -6.9400   21.6740   -2.1170 H   0  0  0  0  0  0  0  0  0  0  0  0
   -6.5080   20.1990   -1.5210 H   0  0  0  0  0  0  0  0  0  0  0  0
   -8.4340   19.5610   -1.1420 H   0  0  0  0  0  0  0  0  0  0  0  0
  -10.3770   18.7470   -2.2600 H   0  0  0  0  0  0  0  0  0  0  0  0
   -8.4960   15.1540   -3.3460 H   0  0  0  0  0  0  0  0  0  0  0  0
   -3.3480   18.8610   -0.4320 H   0  0  0  0  0  0  0  0  0  0  0  0
   -1.9700   18.3070    1.5600 H   0  0  0  0  0  0  0  0  0  0  0  0
    0.2370   17.3270    1.9950 H   0  0  0  0  0  0  0  0  0  0  0  0
   10.9130   14.4370    1.0380 H   0  0  0  0  0  0  0  0  0  0  0  0
    9.8300   15.8440    1.1630 H   0  0  0  0  0  0  0  0  0  0  0  0
   11.0080   15.5110    2.4540 H   0  0  0  0  0  0  0  0  0  0  0  0
   13.3240   14.7300    0.6660 H   0  0  0  0  0  0  0  0  0  0  0  0
   13.4020   15.7980    2.0870 H   0  0  0  0  0  0  0  0  0  0  0  0
   14.0370   16.3540    0.5200 H   0  0  0  0  0  0  0  0  0  0  0  0
   11.7510   15.0880   -1.1130 H   0  0  0  0  0  0  0  0  0  0  0  0
   12.4070   16.7150   -1.4160 H   0  0  0  0  0  0  0  0  0  0  0  0
   10.6620   16.4960   -1.1370 H   0  0  0  0  0  0  0  0  0  0  0  0
   18.4700   21.5690   -3.0540 H   0  0  0  0  0  0  0  0  0  0  0  0
   20.0430   23.4130   -2.6310 H   0  0  0  0  0  0  0  0  0  0  0  0
   23.0110   26.6420    1.0730 H   0  0  0  0  0  0  0  0  0  0  0  0
  1  2  1  0  0  0  0
  1 73  1  0  0  0  0
  1 74  1  0  0  0  0
  1 75  1  0  0  0  0
  2  3  2  0  0  0  0
  2 72  1  0  0  0  0
  3  4  1  0  0  0  0
  3 70  1  0  0  0  0
  4  5  1  0  0  0  0
  4 69  2  0  0  0  0
  5  6  2  0  0  0  0
  5 76  1  0  0  0  0
  6  7  1  0  0  0  0
  6 77  1  0  0  0  0
  7  8  1  0  0  0  0
  7 68  2  0  0  0  0
  8  9  1  0  0  0  0
  8 78  1  0  0  0  0
  8 79  1  0  0  0  0
  9 10  1  0  0  0  0
  9 80  1  0  0  0  0
 10 11  2  0  0  0  0
 10 12  1  0  0  0  0
 12 13  1  0  0  0  0
 12 17  1  0  0  0  0
 12 81  1  0  0  0  0
 13 14  1  0  0  0  0
 13 82  1  0  0  0  0
 13 83  1  0  0  0  0
 14 15  1  0  0  0  0
 14 16  1  0  0  0  0
 14 84  1  0  0  0  0
 15 85  1  0  0  0  0
 16 17  1  0  0  0  0
 16 86  1  0  0  0  0
 16 87  1  0  0  0  0
 17 18  1  0  0  0  0
 18 19  2  0  0  0  0
 18 20  1  0  0  0  0
 20 21  1  0  0  0  0
 20 64  1  0  0  0  0
 20 88  1  0  0  0  0
 21 22  1  0  0  0  0
 21 89  1  0  0  0  0
 22 23  2  0  0  0  0
 22 24  1  0  0  0  0
 24 25  1  0  0  0  0
 24 90  1  0  0  0  0
 24 91  1  0  0  0  0
 25 26  1  0  0  0  0
 25 92  1  0  0  0  0
 25 93  1  0  0  0  0
 26 27  1  0  0  0  0
 26 94  1  0  0  0  0
 26 95  1  0  0  0  0
 27 28  1  0  0  0  0
 27 96  1  0  0  0  0
 27 97  1  0  0  0  0
 28 29  1  0  0  0  0
 28 98  1  0  0  0  0
 29 30  2  0  0  0  0
 29 31  1  0  0  0  0
 31 32  1  0  0  0  0
 31 63  2  0  0  0  0
 32 33  2  0  0  0  0
 32 99  1  0  0  0  0
 33 34  1  0  0  0  0
 33100  1  0  0  0  0
 34 35  1  0  0  0  0
 34 62  2  0  0  0  0
 35 36  2  0  0  0  0
 35 61  1  0  0  0  0
 36 37  1  0  0  0  0
 36101  1  0  0  0  0
 37 38  2  0  0  0  0
 37102  1  0  0  0  0
 38 39  1  0  0  0  0
 38 46  1  0  0  0  0
 39 40  1  0  0  0  0
 39 45  1  0  0  0  0
 40 41  1  0  0  0  0
 40103  1  0  0  0  0
 40104  1  0  0  0  0
 41 42  1  0  0  0  0
 41105  1  0  0  0  0
 41106  1  0  0  0  0
 42 43  1  0  0  0  0
 42 44  1  0  0  0  0
 42107  1  0  0  0  0
 43108  1  0  0  0  0
 43109  1  0  0  0  0
 43110  1  0  0  0  0
 44 45  1  0  0  0  0
 44111  1  0  0  0  0
 44112  1  0  0  0  0
 45113  1  0  0  0  0
 45114  1  0  0  0  0
 46 47  1  0  0  0  0
 46 61  2  0  0  0  0
 47 48  1  0  0  0  0
 47115  1  0  0  0  0
 48 49  2  0  0  0  0
 48 50  1  0  0  0  0
 50 51  2  0  0  0  0
 50 56  1  0  0  0  0
 51 52  1  0  0  0  0
 51116  1  0  0  0  0
 52 53  1  0  0  0  0
 52117  1  0  0  0  0
 53 54  2  0  0  0  0
 53 55  1  0  0  0  0
 55 56  2  0  0  0  0
 55118  1  0  0  0  0
 56 57  1  0  0  0  0
 57 58  1  0  0  0  0
 57 59  1  0  0  0  0
 57 60  1  0  0  0  0
 61119  1  0  0  0  0
 62 63  1  0  0  0  0
 62120  1  0  0  0  0
 63121  1  0  0  0  0
 64 65  1  0  0  0  0
 64 66  1  0  0  0  0
 64 67  1  0  0  0  0
 65122  1  0  0  0  0
 65123  1  0  0  0  0
 65124  1  0  0  0  0
 66125  1  0  0  0  0
 66126  1  0  0  0  0
 66127  1  0  0  0  0
 67128  1  0  0  0  0
 67129  1  0  0  0  0
 67130  1  0  0  0  0
 68 69  1  0  0  0  0
 68131  1  0  0  0  0
 69132  1  0  0  0  0
 70 71  1  0  0  0  0
 71 72  2  0  0  0  0
 71133  1  0  0  0  0
M  CHG  1  42   1
M  END
>  <Compound ID>
2286

>  <Uniprot>
P61964

>  <Target>
WDR5

>  <E3 ligase>
VHL

>  <Kd (nM, Protac to Target)>
18

>  <Assay (Protac to Target, Kd)>
ITC

>  <Article DOI>
10.1021/acs.jmedchem.1c00146

>  <Molecular Weight>
1012.169

>  <Exact Mass>
1011.4288

>  <XLogP3>
4.77

>  <Heavy Atom Count>
72

>  <Ring Count>
7

>  <Hydrogen Bond Acceptor Count>
11

>  <Hydrogen Bond Donor Count>
6

>  <Rotatable Bond Count>
16

>  <Topological Polar Surface Area>
209.17

>  <Molecular Formula>
C52H60F3N9O7S

>  <InChI>
InChI=1S/C52H60F3N9O7S/c1-31-45(72-30-59-31)34-11-9-32(10-12-34)27-58-49(70)42-25-37(65)29-64(42)50(71)46(51(2,3)4)61-43(66)8-6-7-19-56-47(68)35-15-13-33(14-16-35)36-17-18-41(63-22-20-62(5)21-23-63)40(24-36)60-48(69)38-28-57-44(67)26-39(38)52(53,54)55/h9-18,24,26,28,30,37,42,46,65H,6-8,19-23,25,27,29H2,1-5H3,(H,56,68)(H,57,67)(H,58,70)(H,60,69)(H,61,66)/t37-,42+,46-/m1/s1

>  <InChI Key>
OFNZESNEBSQKSE-BQGOKDIQSA-N

>  <DC50 (nM)>
53

>  <Assay (DC50/Dmax)>
Degradation of WDR5-HiBiT in MV4-11 (WDR5-HiBiT) cells after 24 h treatment

>  <PDB>
7Q2J

$$$$
2287
  MOE2018           3D

136142  0  0  1  0  0  0  0  0999 V2000
   22.1990   25.5740   -2.5990 C   0  0  0  0  0  0  0  0  0  0  0  0
   21.5420   26.6510   -1.7690 C   0  0  0  0  0  0  0  0  0  0  0  0
   20.4920   26.4510   -0.9090 C   0  0  0  0  0  0  0  0  0  0  0  0
   19.7650   25.2250   -0.6080 C   0  0  0  0  0  0  0  0  0  0  0  0
   19.5610   24.8260    0.7180 C   0  0  0  0  0  0  0  0  0  0  0  0
   18.8700   23.6560    1.0110 C   0  0  0  0  0  0  0  0  0  0  0  0
   18.3640   22.8590   -0.0150 C   0  0  0  0  0  0  0  0  0  0  0  0
   17.6000   21.5940    0.3140 C   0  0  0  0  0  0  0  0  0  0  0  0
   16.2660   22.0810    0.6210 N   0  0  0  0  0  0  0  0  0  0  0  0
   15.4260   21.4190    1.4210 C   0  0  0  0  0  0  0  0  0  0  0  0
   15.7810   20.3900    1.9940 O   0  0  0  0  0  0  0  0  0  0  0  0
   14.0440   22.0590    1.7120 C   0  0  2  0  0  0  0  0  0  0  0  0
   13.9900   22.7130    3.1010 C   0  0  0  0  0  0  0  0  0  0  0  0
   12.5790   22.4260    3.6020 C   0  0  1  0  0  0  0  0  0  0  0  0
   11.6900   23.4140    3.1150 O   0  0  0  0  0  0  0  0  0  0  0  0
   12.2930   21.0610    2.9810 C   0  0  0  0  0  0  0  0  0  0  0  0
   12.9210   21.1170    1.6650 N   0  0  0  0  0  0  0  0  0  0  0  0
   12.4170   20.7210    0.4790 C   0  0  0  0  0  0  0  0  0  0  0  0
   12.9750   21.0670   -0.5630 O   0  0  0  0  0  0  0  0  0  0  0  0
   11.1170   19.8590    0.4190 C   0  0  1  0  0  0  0  0  0  0  0  0
   10.0290   20.5750   -0.2620 N   0  0  0  0  0  0  0  0  0  0  0  0
    9.4800   21.6820    0.2300 C   0  0  0  0  0  0  0  0  0  0  0  0
    9.8080   22.1430    1.3180 O   0  0  0  0  0  0  0  0  0  0  0  0
    8.3970   22.3560   -0.6030 C   0  0  0  0  0  0  0  0  0  0  0  0
    7.0480   21.6210   -0.5140 C   0  0  0  0  0  0  0  0  0  0  0  0
    5.9700   22.3390   -1.3370 C   0  0  0  0  0  0  0  0  0  0  0  0
    4.6220   21.6140   -1.2110 C   0  0  0  0  0  0  0  0  0  0  0  0
    3.5340   22.3360   -2.0120 C   0  0  0  0  0  0  0  0  0  0  0  0
    2.3150   21.5550   -1.7970 N   0  0  0  0  0  0  0  0  0  0  0  0
    1.3350   21.9050   -0.9000 C   0  0  0  0  0  0  0  0  0  0  0  0
    1.4820   22.9570   -0.2900 O   0  0  0  0  0  0  0  0  0  0  0  0
    0.1690   21.0310   -0.7190 C   0  0  0  0  0  0  0  0  0  0  0  0
    0.1620   19.6930   -1.1480 C   0  0  0  0  0  0  0  0  0  0  0  0
   -0.9620   18.8950   -0.9710 C   0  0  0  0  0  0  0  0  0  0  0  0
   -2.1130   19.4010   -0.3540 C   0  0  0  0  0  0  0  0  0  0  0  0
   -3.2950   18.5660   -0.1720 C   0  0  0  0  0  0  0  0  0  0  0  0
   -3.1780   17.2620    0.3340 C   0  0  0  0  0  0  0  0  0  0  0  0
   -4.2980   16.4530    0.5040 C   0  0  0  0  0  0  0  0  0  0  0  0
   -5.5640   16.9430    0.1760 C   0  0  0  0  0  0  0  0  0  0  0  0
   -6.7290   16.1410    0.3090 N   0  0  0  0  0  0  0  0  0  0  0  0
   -6.9450   15.2740   -0.8800 C   0  0  0  0  0  0  0  0  0  0  0  0
   -8.3910   14.7250   -0.7950 C   0  0  0  0  0  0  0  0  0  0  0  0
   -8.5040   13.9090    0.4470 N   0  3  0  0  0  0  0  0  0  0  0  0
   -9.8440   13.3080    0.5330 C   0  0  0  0  0  0  0  0  0  0  0  0
   -8.2560   14.7740    1.6350 C   0  0  0  0  0  0  0  0  0  0  0  0
   -6.8060   15.3080    1.5400 C   0  0  0  0  0  0  0  0  0  0  0  0
   -5.6910   18.2560   -0.3170 C   0  0  0  0  0  0  0  0  0  0  0  0
   -7.0240   18.6590   -0.5770 N   0  0  0  0  0  0  0  0  0  0  0  0
   -7.5740   19.8390   -1.0110 C   0  0  0  0  0  0  0  0  0  0  0  0
   -6.8420   20.7670   -1.3180 O   0  0  0  0  0  0  0  0  0  0  0  0
   -9.0300   19.9030   -1.0600 C   0  0  0  0  0  0  0  0  0  0  0  0
   -9.7440   19.3830    0.0020 C   0  0  0  0  0  0  0  0  0  0  0  0
  -11.1130   19.4360    0.0190 N   0  0  0  0  0  0  0  0  0  0  0  0
  -11.8430   20.0030   -0.9840 C   0  0  0  0  0  0  0  0  0  0  0  0
  -13.0590   19.9850   -0.8370 O   0  0  0  0  0  0  0  0  0  0  0  0
  -11.1270   20.5470   -2.0960 C   0  0  0  0  0  0  0  0  0  0  0  0
   -9.7560   20.5030   -2.1660 C   0  0  0  0  0  0  0  0  0  0  0  0
   -9.0280   21.0690   -3.3990 C   0  0  0  0  0  0  0  0  0  0  0  0
   -8.4640   22.2440   -3.1050 F   0  0  0  0  0  0  0  0  0  0  0  0
   -9.9070   21.2700   -4.3990 F   0  0  0  0  0  0  0  0  0  0  0  0
   -8.1100   20.1970   -3.8400 F   0  0  0  0  0  0  0  0  0  0  0  0
   -4.5670   19.0570   -0.4990 C   0  0  0  0  0  0  0  0  0  0  0  0
   -2.1050   20.7310    0.0820 C   0  0  0  0  0  0  0  0  0  0  0  0
   -0.9840   21.5310   -0.0960 C   0  0  0  0  0  0  0  0  0  0  0  0
   11.3180   18.4370   -0.1980 C   0  0  0  0  0  0  0  0  0  0  0  0
   10.0470   17.5860    0.0160 C   0  0  0  0  0  0  0  0  0  0  0  0
   12.4700   17.7030    0.5180 C   0  0  0  0  0  0  0  0  0  0  0  0
   11.6220   18.4370   -1.7110 C   0  0  0  0  0  0  0  0  0  0  0  0
   18.5530   23.2540   -1.3390 C   0  0  0  0  0  0  0  0  0  0  0  0
   19.2460   24.4230   -1.6320 C   0  0  0  0  0  0  0  0  0  0  0  0
   20.0760   27.9340   -0.1530 S   0  0  0  0  0  0  0  0  0  0  0  0
   21.3170   28.7080   -1.0560 C   0  0  0  0  0  0  0  0  0  0  0  0
   21.9940   27.9290   -1.8500 N   0  0  0  0  0  0  0  0  0  0  0  0
   21.7100   24.6190   -2.4080 H   0  0  0  0  0  0  0  0  0  0  0  0
   23.2530   25.5020   -2.3320 H   0  0  0  0  0  0  0  0  0  0  0  0
   22.1080   25.8240   -3.6560 H   0  0  0  0  0  0  0  0  0  0  0  0
   19.9450   25.4350    1.5230 H   0  0  0  0  0  0  0  0  0  0  0  0
   18.7240   23.3620    2.0400 H   0  0  0  0  0  0  0  0  0  0  0  0
   18.0380   21.0860    1.1730 H   0  0  0  0  0  0  0  0  0  0  0  0
   17.5820   20.9160   -0.5390 H   0  0  0  0  0  0  0  0  0  0  0  0
   15.9620   22.9540    0.2140 H   0  0  0  0  0  0  0  0  0  0  0  0
   13.9390   22.7930    0.9130 H   0  0  0  0  0  0  0  0  0  0  0  0
   14.1620   23.7870    3.0280 H   0  0  0  0  0  0  0  0  0  0  0  0
   14.7320   22.2700    3.7650 H   0  0  0  0  0  0  0  0  0  0  0  0
   12.4680   22.4340    4.6860 H   0  0  0  0  0  0  0  0  0  0  0  0
   11.7680   23.4280    2.1580 H   0  0  0  0  0  0  0  0  0  0  0  0
   11.2190   20.8980    2.8880 H   0  0  0  0  0  0  0  0  0  0  0  0
   12.7310   20.2650    3.5830 H   0  0  0  0  0  0  0  0  0  0  0  0
   10.8360   19.6940    1.4590 H   0  0  0  0  0  0  0  0  0  0  0  0
    9.6840   20.2120   -1.1390 H   0  0  0  0  0  0  0  0  0  0  0  0
    8.2640   23.3770   -0.2450 H   0  0  0  0  0  0  0  0  0  0  0  0
    8.7170   22.3750   -1.6450 H   0  0  0  0  0  0  0  0  0  0  0  0
    7.1700   20.6070   -0.8950 H   0  0  0  0  0  0  0  0  0  0  0  0
    6.7320   21.5820    0.5290 H   0  0  0  0  0  0  0  0  0  0  0  0
    6.2710   22.3560   -2.3840 H   0  0  0  0  0  0  0  0  0  0  0  0
    5.8630   23.3610   -0.9730 H   0  0  0  0  0  0  0  0  0  0  0  0
    4.3310   21.5830   -0.1610 H   0  0  0  0  0  0  0  0  0  0  0  0
    4.7270   20.5970   -1.5890 H   0  0  0  0  0  0  0  0  0  0  0  0
    3.7910   22.3590   -3.0710 H   0  0  0  0  0  0  0  0  0  0  0  0
    3.4040   23.3550   -1.6470 H   0  0  0  0  0  0  0  0  0  0  0  0
    2.1870   20.7120   -2.3380 H   0  0  0  0  0  0  0  0  0  0  0  0
    1.0410   19.2800   -1.6210 H   0  0  0  0  0  0  0  0  0  0  0  0
   -0.9480   17.8710   -1.3140 H   0  0  0  0  0  0  0  0  0  0  0  0
   -2.2020   16.8800    0.5960 H   0  0  0  0  0  0  0  0  0  0  0  0
   -4.1880   15.4500    0.8880 H   0  0  0  0  0  0  0  0  0  0  0  0
   -6.8200   15.8560   -1.7930 H   0  0  0  0  0  0  0  0  0  0  0  0
   -6.2320   14.4490   -0.8740 H   0  0  0  0  0  0  0  0  0  0  0  0
   -8.6020   14.1040   -1.6660 H   0  0  0  0  0  0  0  0  0  0  0  0
   -9.0990   15.5530   -0.7590 H   0  0  0  0  0  0  0  0  0  0  0  0
   -7.8170   13.1690    0.4240 H   0  0  0  0  0  0  0  0  0  0  0  0
  -10.5950   14.0970    0.5580 H   0  0  0  0  0  0  0  0  0  0  0  0
   -9.9160   12.7090    1.4410 H   0  0  0  0  0  0  0  0  0  0  0  0
  -10.0140   12.6730   -0.3360 H   0  0  0  0  0  0  0  0  0  0  0  0
   -8.9580   15.6080    1.6390 H   0  0  0  0  0  0  0  0  0  0  0  0
   -8.3770   14.1920    2.5490 H   0  0  0  0  0  0  0  0  0  0  0  0
   -6.1040   14.4760    1.4740 H   0  0  0  0  0  0  0  0  0  0  0  0
   -6.5710   15.9120    2.4160 H   0  0  0  0  0  0  0  0  0  0  0  0
   -7.7060   17.9330   -0.4090 H   0  0  0  0  0  0  0  0  0  0  0  0
   -9.2170   18.9290    0.8280 H   0  0  0  0  0  0  0  0  0  0  0  0
  -11.6020   19.0380    0.8080 H   0  0  0  0  0  0  0  0  0  0  0  0
  -11.6800   21.0050   -2.9030 H   0  0  0  0  0  0  0  0  0  0  0  0
   -4.6750   20.0570   -0.8920 H   0  0  0  0  0  0  0  0  0  0  0  0
   -2.9810   21.1400    0.5630 H   0  0  0  0  0  0  0  0  0  0  0  0
   -1.0000   22.5540    0.2510 H   0  0  0  0  0  0  0  0  0  0  0  0
   10.1950   16.5970   -0.4170 H   0  0  0  0  0  0  0  0  0  0  0  0
    9.1990   18.0710   -0.4680 H   0  0  0  0  0  0  0  0  0  0  0  0
    9.8500   17.4900    1.0840 H   0  0  0  0  0  0  0  0  0  0  0  0
   12.5990   16.7140    0.0790 H   0  0  0  0  0  0  0  0  0  0  0  0
   12.2340   17.6020    1.5770 H   0  0  0  0  0  0  0  0  0  0  0  0
   13.3910   18.2740    0.4040 H   0  0  0  0  0  0  0  0  0  0  0  0
   11.7470   17.4110   -2.0560 H   0  0  0  0  0  0  0  0  0  0  0  0
   12.5380   18.9970   -1.8980 H   0  0  0  0  0  0  0  0  0  0  0  0
   10.7960   18.9030   -2.2480 H   0  0  0  0  0  0  0  0  0  0  0  0
   18.1590   22.6480   -2.1410 H   0  0  0  0  0  0  0  0  0  0  0  0
   19.3860   24.7160   -2.6620 H   0  0  0  0  0  0  0  0  0  0  0  0
   21.5210   29.7650   -0.9710 H   0  0  0  0  0  0  0  0  0  0  0  0
  1  2  1  0  0  0  0
  1 74  1  0  0  0  0
  1 75  1  0  0  0  0
  1 76  1  0  0  0  0
  2  3  2  0  0  0  0
  2 73  1  0  0  0  0
  3  4  1  0  0  0  0
  3 71  1  0  0  0  0
  4  5  1  0  0  0  0
  4 70  2  0  0  0  0
  5  6  2  0  0  0  0
  5 77  1  0  0  0  0
  6  7  1  0  0  0  0
  6 78  1  0  0  0  0
  7  8  1  0  0  0  0
  7 69  2  0  0  0  0
  8  9  1  0  0  0  0
  8 79  1  0  0  0  0
  8 80  1  0  0  0  0
  9 10  1  0  0  0  0
  9 81  1  0  0  0  0
 10 11  2  0  0  0  0
 10 12  1  0  0  0  0
 12 13  1  0  0  0  0
 12 17  1  0  0  0  0
 12 82  1  0  0  0  0
 13 14  1  0  0  0  0
 13 83  1  0  0  0  0
 13 84  1  0  0  0  0
 14 15  1  0  0  0  0
 14 16  1  0  0  0  0
 14 85  1  0  0  0  0
 15 86  1  0  0  0  0
 16 17  1  0  0  0  0
 16 87  1  0  0  0  0
 16 88  1  0  0  0  0
 17 18  1  0  0  0  0
 18 19  2  0  0  0  0
 18 20  1  0  0  0  0
 20 21  1  0  0  0  0
 20 65  1  0  0  0  0
 20 89  1  0  0  0  0
 21 22  1  0  0  0  0
 21 90  1  0  0  0  0
 22 23  2  0  0  0  0
 22 24  1  0  0  0  0
 24 25  1  0  0  0  0
 24 91  1  0  0  0  0
 24 92  1  0  0  0  0
 25 26  1  0  0  0  0
 25 93  1  0  0  0  0
 25 94  1  0  0  0  0
 26 27  1  0  0  0  0
 26 95  1  0  0  0  0
 26 96  1  0  0  0  0
 27 28  1  0  0  0  0
 27 97  1  0  0  0  0
 27 98  1  0  0  0  0
 28 29  1  0  0  0  0
 28 99  1  0  0  0  0
 28100  1  0  0  0  0
 29 30  1  0  0  0  0
 29101  1  0  0  0  0
 30 31  2  0  0  0  0
 30 32  1  0  0  0  0
 32 33  1  0  0  0  0
 32 64  2  0  0  0  0
 33 34  2  0  0  0  0
 33102  1  0  0  0  0
 34 35  1  0  0  0  0
 34103  1  0  0  0  0
 35 36  1  0  0  0  0
 35 63  2  0  0  0  0
 36 37  2  0  0  0  0
 36 62  1  0  0  0  0
 37 38  1  0  0  0  0
 37104  1  0  0  0  0
 38 39  2  0  0  0  0
 38105  1  0  0  0  0
 39 40  1  0  0  0  0
 39 47  1  0  0  0  0
 40 41  1  0  0  0  0
 40 46  1  0  0  0  0
 41 42  1  0  0  0  0
 41106  1  0  0  0  0
 41107  1  0  0  0  0
 42 43  1  0  0  0  0
 42108  1  0  0  0  0
 42109  1  0  0  0  0
 43 44  1  0  0  0  0
 43 45  1  0  0  0  0
 43110  1  0  0  0  0
 44111  1  0  0  0  0
 44112  1  0  0  0  0
 44113  1  0  0  0  0
 45 46  1  0  0  0  0
 45114  1  0  0  0  0
 45115  1  0  0  0  0
 46116  1  0  0  0  0
 46117  1  0  0  0  0
 47 48  1  0  0  0  0
 47 62  2  0  0  0  0
 48 49  1  0  0  0  0
 48118  1  0  0  0  0
 49 50  2  0  0  0  0
 49 51  1  0  0  0  0
 51 52  2  0  0  0  0
 51 57  1  0  0  0  0
 52 53  1  0  0  0  0
 52119  1  0  0  0  0
 53 54  1  0  0  0  0
 53120  1  0  0  0  0
 54 55  2  0  0  0  0
 54 56  1  0  0  0  0
 56 57  2  0  0  0  0
 56121  1  0  0  0  0
 57 58  1  0  0  0  0
 58 59  1  0  0  0  0
 58 60  1  0  0  0  0
 58 61  1  0  0  0  0
 62122  1  0  0  0  0
 63 64  1  0  0  0  0
 63123  1  0  0  0  0
 64124  1  0  0  0  0
 65 66  1  0  0  0  0
 65 67  1  0  0  0  0
 65 68  1  0  0  0  0
 66125  1  0  0  0  0
 66126  1  0  0  0  0
 66127  1  0  0  0  0
 67128  1  0  0  0  0
 67129  1  0  0  0  0
 67130  1  0  0  0  0
 68131  1  0  0  0  0
 68132  1  0  0  0  0
 68133  1  0  0  0  0
 69 70  1  0  0  0  0
 69134  1  0  0  0  0
 70135  1  0  0  0  0
 71 72  1  0  0  0  0
 72 73  2  0  0  0  0
 72136  1  0  0  0  0
M  CHG  1  43   1
M  END
>  <Compound ID>
2287

>  <Uniprot>
P61964

>  <Target>
WDR5

>  <E3 ligase>
VHL

>  <Kd (nM, Protac to Target)>
12

>  <Assay (Protac to Target, Kd)>
ITC

>  <Article DOI>
10.1021/acs.jmedchem.1c00146

>  <Molecular Weight>
1026.196

>  <Exact Mass>
1025.4445

>  <XLogP3>
5.1199999

>  <Heavy Atom Count>
73

>  <Ring Count>
7

>  <Hydrogen Bond Acceptor Count>
11

>  <Hydrogen Bond Donor Count>
6

>  <Rotatable Bond Count>
17

>  <Topological Polar Surface Area>
209.17

>  <Molecular Formula>
C53H62F3N9O7S

>  <InChI>
InChI=1S/C53H62F3N9O7S/c1-32-46(73-31-60-32)35-12-10-33(11-13-35)28-59-50(71)43-26-38(66)30-65(43)51(72)47(52(2,3)4)62-44(67)9-7-6-8-20-57-48(69)36-16-14-34(15-17-36)37-18-19-42(64-23-21-63(5)22-24-64)41(25-37)61-49(70)39-29-58-45(68)27-40(39)53(54,55)56/h10-19,25,27,29,31,38,43,47,66H,6-9,20-24,26,28,30H2,1-5H3,(H,57,69)(H,58,68)(H,59,71)(H,61,70)(H,62,67)/t38-,43+,47-/m1/s1

>  <InChI Key>
UPLJFUHLGRAYID-MXPJCAPISA-N

>  <DC50 (nM)>
920

>  <Assay (DC50/Dmax)>
Degradation of WDR5-HiBiT in MV4-11 (WDR5-HiBiT) cells after 24 h treatment

$$$$
2288
  MOE2018           3D

139145  0  0  1  0  0  0  0  0999 V2000
   25.3000  -18.1940    0.5370 C   0  0  0  0  0  0  0  0  0  0  0  0
   24.6720  -16.9400   -0.0250 C   0  0  0  0  0  0  0  0  0  0  0  0
   23.4570  -16.8860   -0.6610 C   0  0  0  0  0  0  0  0  0  0  0  0
   22.5030  -17.9570   -0.9190 C   0  0  0  0  0  0  0  0  0  0  0  0
   21.9800  -18.1530   -2.2020 C   0  0  0  0  0  0  0  0  0  0  0  0
   21.0780  -19.1810   -2.4530 C   0  0  0  0  0  0  0  0  0  0  0  0
   20.6770  -20.0340   -1.4260 C   0  0  0  0  0  0  0  0  0  0  0  0
   19.6970  -21.1600   -1.6870 C   0  0  0  0  0  0  0  0  0  0  0  0
   18.4140  -20.6270   -1.2430 N   0  0  0  0  0  0  0  0  0  0  0  0
   17.8560  -20.9560   -0.0740 C   0  0  0  0  0  0  0  0  0  0  0  0
   18.4070  -21.7390    0.7000 O   0  0  0  0  0  0  0  0  0  0  0  0
   16.5400  -20.2410    0.3320 C   0  0  2  0  0  0  0  0  0  0  0  0
   16.7440  -19.2380    1.4780 C   0  0  0  0  0  0  0  0  0  0  0  0
   15.5230  -19.4210    2.3750 C   0  0  1  0  0  0  0  0  0  0  0  0
   14.4580  -18.6110    1.9090 O   0  0  0  0  0  0  0  0  0  0  0  0
   15.2130  -20.9060    2.1920 C   0  0  0  0  0  0  0  0  0  0  0  0
   15.4970  -21.1650    0.7850 N   0  0  0  0  0  0  0  0  0  0  0  0
   14.7590  -21.8540   -0.1070 C   0  0  0  0  0  0  0  0  0  0  0  0
   15.0170  -21.7590   -1.3090 O   0  0  0  0  0  0  0  0  0  0  0  0
   13.5840  -22.7600    0.3720 C   0  0  1  0  0  0  0  0  0  0  0  0
   12.2870  -22.2850   -0.1290 N   0  0  0  0  0  0  0  0  0  0  0  0
   11.7330  -21.1430    0.2680 C   0  0  0  0  0  0  0  0  0  0  0  0
   12.2740  -20.4040    1.0830 O   0  0  0  0  0  0  0  0  0  0  0  0
   10.3540  -20.8110   -0.2870 C   0  0  0  0  0  0  0  0  0  0  0  0
    9.2680  -21.7250    0.3050 C   0  0  0  0  0  0  0  0  0  0  0  0
    7.8660  -21.3280   -0.1740 C   0  0  0  0  0  0  0  0  0  0  0  0
    6.8220  -22.2760    0.4330 C   0  0  0  0  0  0  0  0  0  0  0  0
    5.3970  -21.8550    0.0490 C   0  0  0  0  0  0  0  0  0  0  0  0
    4.3860  -22.8230    0.6700 C   0  0  0  0  0  0  0  0  0  0  0  0
    3.0720  -22.2940    0.3200 N   0  0  0  0  0  0  0  0  0  0  0  0
    1.9240  -23.0020    0.5640 C   0  0  0  0  0  0  0  0  0  0  0  0
    2.0490  -24.1570    0.9550 O   0  0  0  0  0  0  0  0  0  0  0  0
    0.6240  -22.3480    0.3840 C   0  0  0  0  0  0  0  0  0  0  0  0
    0.4590  -21.2540   -0.4810 C   0  0  0  0  0  0  0  0  0  0  0  0
   -0.7760  -20.6300   -0.6090 C   0  0  0  0  0  0  0  0  0  0  0  0
   -1.8860  -21.0790    0.1190 C   0  0  0  0  0  0  0  0  0  0  0  0
   -3.1790  -20.4150    0.0020 C   0  0  0  0  0  0  0  0  0  0  0  0
   -3.2710  -19.0150    0.0480 C   0  0  0  0  0  0  0  0  0  0  0  0
   -4.5020  -18.3740   -0.0500 C   0  0  0  0  0  0  0  0  0  0  0  0
   -5.6700  -19.1200   -0.1880 C   0  0  0  0  0  0  0  0  0  0  0  0
   -6.8840  -18.3990   -0.2540 N   0  0  0  0  0  0  0  0  0  0  0  0
   -7.5760  -18.4420   -1.5740 C   0  0  0  0  0  0  0  0  0  0  0  0
   -8.7660  -17.4560   -1.5390 C   0  0  0  0  0  0  0  0  0  0  0  0
   -9.6680  -17.8760   -0.4290 N   0  3  0  0  0  0  0  0  0  0  0  0
  -10.9000  -17.0700   -0.4680 C   0  0  0  0  0  0  0  0  0  0  0  0
   -8.9510  -17.6230    0.8530 C   0  0  0  0  0  0  0  0  0  0  0  0
   -7.7620  -18.6070    0.9340 C   0  0  0  0  0  0  0  0  0  0  0  0
   -5.5890  -20.5320   -0.2310 C   0  0  0  0  0  0  0  0  0  0  0  0
   -6.7930  -21.2690   -0.4020 N   0  0  0  0  0  0  0  0  0  0  0  0
   -7.1320  -22.5180    0.0640 C   0  0  0  0  0  0  0  0  0  0  0  0
   -6.3210  -23.1280    0.7440 O   0  0  0  0  0  0  0  0  0  0  0  0
   -8.4690  -23.0130   -0.2570 C   0  0  0  0  0  0  0  0  0  0  0  0
   -9.5260  -22.1200   -0.2630 C   0  0  0  0  0  0  0  0  0  0  0  0
  -10.8010  -22.5430   -0.5230 N   0  0  0  0  0  0  0  0  0  0  0  0
  -11.1130  -23.8460   -0.7750 C   0  0  0  0  0  0  0  0  0  0  0  0
  -12.2980  -24.0850   -0.9750 O   0  0  0  0  0  0  0  0  0  0  0  0
  -10.0390  -24.7890   -0.7890 C   0  0  0  0  0  0  0  0  0  0  0  0
   -8.7380  -24.4120   -0.5550 C   0  0  0  0  0  0  0  0  0  0  0  0
   -7.6140  -25.4640   -0.6270 C   0  0  0  0  0  0  0  0  0  0  0  0
   -6.5880  -25.0030   -1.3580 F   0  0  0  0  0  0  0  0  0  0  0  0
   -8.0660  -26.5810   -1.2290 F   0  0  0  0  0  0  0  0  0  0  0  0
   -7.2100  -25.7960    0.6030 F   0  0  0  0  0  0  0  0  0  0  0  0
   -4.3530  -21.1660   -0.1490 C   0  0  0  0  0  0  0  0  0  0  0  0
   -1.7270  -22.1850    0.9640 C   0  0  0  0  0  0  0  0  0  0  0  0
   -0.4940  -22.8100    1.0910 C   0  0  0  0  0  0  0  0  0  0  0  0
   13.7740  -24.2790    0.0590 C   0  0  0  0  0  0  0  0  0  0  0  0
   15.1370  -24.7680    0.5900 C   0  0  0  0  0  0  0  0  0  0  0  0
   12.6910  -25.1070    0.7840 C   0  0  0  0  0  0  0  0  0  0  0  0
   13.6950  -24.6330   -1.4420 C   0  0  0  0  0  0  0  0  0  0  0  0
   21.1830  -19.8370   -0.1420 C   0  0  0  0  0  0  0  0  0  0  0  0
   22.0850  -18.8090    0.1100 C   0  0  0  0  0  0  0  0  0  0  0  0
   23.1410  -15.2770   -1.1630 S   0  0  0  0  0  0  0  0  0  0  0  0
   24.6380  -14.7980   -0.4670 C   0  0  0  0  0  0  0  0  0  0  0  0
   25.3250  -15.7560    0.0850 N   0  0  0  0  0  0  0  0  0  0  0  0
   24.6390  -19.0420    0.3590 H   0  0  0  0  0  0  0  0  0  0  0  0
   25.4560  -18.0730    1.6090 H   0  0  0  0  0  0  0  0  0  0  0  0
   26.2580  -18.3710    0.0480 H   0  0  0  0  0  0  0  0  0  0  0  0
   22.2800  -17.4980   -3.0070 H   0  0  0  0  0  0  0  0  0  0  0  0
   20.6860  -19.3190   -3.4500 H   0  0  0  0  0  0  0  0  0  0  0  0
   19.9660  -22.0470   -1.1140 H   0  0  0  0  0  0  0  0  0  0  0  0
   19.6660  -21.4080   -2.7480 H   0  0  0  0  0  0  0  0  0  0  0  0
   17.9250  -19.9800   -1.8460 H   0  0  0  0  0  0  0  0  0  0  0  0
   16.2300  -19.7350   -0.5830 H   0  0  0  0  0  0  0  0  0  0  0  0
   16.7890  -18.2190    1.0940 H   0  0  0  0  0  0  0  0  0  0  0  0
   17.6600  -19.4610    2.0250 H   0  0  0  0  0  0  0  0  0  0  0  0
   15.6780  -19.1390    3.4160 H   0  0  0  0  0  0  0  0  0  0  0  0
   14.3000  -18.8400    0.9900 H   0  0  0  0  0  0  0  0  0  0  0  0
   14.1670  -21.1130    2.4190 H   0  0  0  0  0  0  0  0  0  0  0  0
   15.8510  -21.5150    2.8330 H   0  0  0  0  0  0  0  0  0  0  0  0
   13.5940  -22.6730    1.4580 H   0  0  0  0  0  0  0  0  0  0  0  0
   11.7940  -22.8510   -0.8050 H   0  0  0  0  0  0  0  0  0  0  0  0
   10.1150  -19.7760   -0.0440 H   0  0  0  0  0  0  0  0  0  0  0  0
   10.3690  -20.9360   -1.3700 H   0  0  0  0  0  0  0  0  0  0  0  0
    9.4670  -22.7520    0.0000 H   0  0  0  0  0  0  0  0  0  0  0  0
    9.3020  -21.6550    1.3920 H   0  0  0  0  0  0  0  0  0  0  0  0
    7.6520  -20.3060    0.1390 H   0  0  0  0  0  0  0  0  0  0  0  0
    7.8240  -21.3910   -1.2610 H   0  0  0  0  0  0  0  0  0  0  0  0
    6.9170  -22.2600    1.5190 H   0  0  0  0  0  0  0  0  0  0  0  0
    7.0050  -23.2860    0.0670 H   0  0  0  0  0  0  0  0  0  0  0  0
    5.2950  -21.8710   -1.0360 H   0  0  0  0  0  0  0  0  0  0  0  0
    5.2060  -20.8470    0.4170 H   0  0  0  0  0  0  0  0  0  0  0  0
    4.5070  -22.8570    1.7530 H   0  0  0  0  0  0  0  0  0  0  0  0
    4.5150  -23.8240    0.2590 H   0  0  0  0  0  0  0  0  0  0  0  0
    3.0070  -21.3840   -0.1130 H   0  0  0  0  0  0  0  0  0  0  0  0
    1.3010  -20.8940   -1.0530 H   0  0  0  0  0  0  0  0  0  0  0  0
   -0.8820  -19.7890   -1.2780 H   0  0  0  0  0  0  0  0  0  0  0  0
   -2.3730  -18.4260    0.1610 H   0  0  0  0  0  0  0  0  0  0  0  0
   -4.5520  -17.2960   -0.0190 H   0  0  0  0  0  0  0  0  0  0  0  0
   -6.8820  -18.1520   -2.3620 H   0  0  0  0  0  0  0  0  0  0  0  0
   -7.9410  -19.4510   -1.7650 H   0  0  0  0  0  0  0  0  0  0  0  0
   -9.3030  -17.4880   -2.4870 H   0  0  0  0  0  0  0  0  0  0  0  0
   -8.4040  -16.4430   -1.3610 H   0  0  0  0  0  0  0  0  0  0  0  0
   -9.9120  -18.8520   -0.5160 H   0  0  0  0  0  0  0  0  0  0  0  0
  -10.6460  -16.0140   -0.3750 H   0  0  0  0  0  0  0  0  0  0  0  0
  -11.5510  -17.3610    0.3560 H   0  0  0  0  0  0  0  0  0  0  0  0
  -11.4140  -17.2380   -1.4140 H   0  0  0  0  0  0  0  0  0  0  0  0
   -8.5850  -16.5970    0.8760 H   0  0  0  0  0  0  0  0  0  0  0  0
   -9.6260  -17.7870    1.6930 H   0  0  0  0  0  0  0  0  0  0  0  0
   -8.1340  -19.6320    0.9400 H   0  0  0  0  0  0  0  0  0  0  0  0
   -7.1940  -18.4220    1.8460 H   0  0  0  0  0  0  0  0  0  0  0  0
   -7.5060  -20.8060   -0.9470 H   0  0  0  0  0  0  0  0  0  0  0  0
   -9.3420  -21.0750   -0.0600 H   0  0  0  0  0  0  0  0  0  0  0  0
  -11.5440  -21.8590   -0.5280 H   0  0  0  0  0  0  0  0  0  0  0  0
  -10.2560  -25.8280   -0.9890 H   0  0  0  0  0  0  0  0  0  0  0  0
   -4.2980  -22.2430   -0.2020 H   0  0  0  0  0  0  0  0  0  0  0  0
   -2.5730  -22.5560    1.5230 H   0  0  0  0  0  0  0  0  0  0  0  0
   -0.3950  -23.6640    1.7440 H   0  0  0  0  0  0  0  0  0  0  0  0
   15.2560  -25.8280    0.3650 H   0  0  0  0  0  0  0  0  0  0  0  0
   15.1810  -24.6190    1.6690 H   0  0  0  0  0  0  0  0  0  0  0  0
   15.9370  -24.2030    0.1120 H   0  0  0  0  0  0  0  0  0  0  0  0
   12.8310  -26.1640    0.5600 H   0  0  0  0  0  0  0  0  0  0  0  0
   11.7040  -24.7920    0.4440 H   0  0  0  0  0  0  0  0  0  0  0  0
   12.7730  -24.9500    1.8590 H   0  0  0  0  0  0  0  0  0  0  0  0
   13.8370  -25.7060   -1.5700 H   0  0  0  0  0  0  0  0  0  0  0  0
   14.4740  -24.0960   -1.9830 H   0  0  0  0  0  0  0  0  0  0  0  0
   12.7180  -24.3470   -1.8320 H   0  0  0  0  0  0  0  0  0  0  0  0
   20.8720  -20.4870    0.6620 H   0  0  0  0  0  0  0  0  0  0  0  0
   22.4670  -18.6660    1.1100 H   0  0  0  0  0  0  0  0  0  0  0  0
   24.9840  -13.7750   -0.4860 H   0  0  0  0  0  0  0  0  0  0  0  0
  1  2  1  0  0  0  0
  1 75  1  0  0  0  0
  1 76  1  0  0  0  0
  1 77  1  0  0  0  0
  2  3  2  0  0  0  0
  2 74  1  0  0  0  0
  3  4  1  0  0  0  0
  3 72  1  0  0  0  0
  4  5  1  0  0  0  0
  4 71  2  0  0  0  0
  5  6  2  0  0  0  0
  5 78  1  0  0  0  0
  6  7  1  0  0  0  0
  6 79  1  0  0  0  0
  7  8  1  0  0  0  0
  7 70  2  0  0  0  0
  8  9  1  0  0  0  0
  8 80  1  0  0  0  0
  8 81  1  0  0  0  0
  9 10  1  0  0  0  0
  9 82  1  0  0  0  0
 10 11  2  0  0  0  0
 10 12  1  0  0  0  0
 12 13  1  0  0  0  0
 12 17  1  0  0  0  0
 12 83  1  0  0  0  0
 13 14  1  0  0  0  0
 13 84  1  0  0  0  0
 13 85  1  0  0  0  0
 14 15  1  0  0  0  0
 14 16  1  0  0  0  0
 14 86  1  0  0  0  0
 15 87  1  0  0  0  0
 16 17  1  0  0  0  0
 16 88  1  0  0  0  0
 16 89  1  0  0  0  0
 17 18  1  0  0  0  0
 18 19  2  0  0  0  0
 18 20  1  0  0  0  0
 20 21  1  0  0  0  0
 20 66  1  0  0  0  0
 20 90  1  0  0  0  0
 21 22  1  0  0  0  0
 21 91  1  0  0  0  0
 22 23  2  0  0  0  0
 22 24  1  0  0  0  0
 24 25  1  0  0  0  0
 24 92  1  0  0  0  0
 24 93  1  0  0  0  0
 25 26  1  0  0  0  0
 25 94  1  0  0  0  0
 25 95  1  0  0  0  0
 26 27  1  0  0  0  0
 26 96  1  0  0  0  0
 26 97  1  0  0  0  0
 27 28  1  0  0  0  0
 27 98  1  0  0  0  0
 27 99  1  0  0  0  0
 28 29  1  0  0  0  0
 28100  1  0  0  0  0
 28101  1  0  0  0  0
 29 30  1  0  0  0  0
 29102  1  0  0  0  0
 29103  1  0  0  0  0
 30 31  1  0  0  0  0
 30104  1  0  0  0  0
 31 32  2  0  0  0  0
 31 33  1  0  0  0  0
 33 34  1  0  0  0  0
 33 65  2  0  0  0  0
 34 35  2  0  0  0  0
 34105  1  0  0  0  0
 35 36  1  0  0  0  0
 35106  1  0  0  0  0
 36 37  1  0  0  0  0
 36 64  2  0  0  0  0
 37 38  2  0  0  0  0
 37 63  1  0  0  0  0
 38 39  1  0  0  0  0
 38107  1  0  0  0  0
 39 40  2  0  0  0  0
 39108  1  0  0  0  0
 40 41  1  0  0  0  0
 40 48  1  0  0  0  0
 41 42  1  0  0  0  0
 41 47  1  0  0  0  0
 42 43  1  0  0  0  0
 42109  1  0  0  0  0
 42110  1  0  0  0  0
 43 44  1  0  0  0  0
 43111  1  0  0  0  0
 43112  1  0  0  0  0
 44 45  1  0  0  0  0
 44 46  1  0  0  0  0
 44113  1  0  0  0  0
 45114  1  0  0  0  0
 45115  1  0  0  0  0
 45116  1  0  0  0  0
 46 47  1  0  0  0  0
 46117  1  0  0  0  0
 46118  1  0  0  0  0
 47119  1  0  0  0  0
 47120  1  0  0  0  0
 48 49  1  0  0  0  0
 48 63  2  0  0  0  0
 49 50  1  0  0  0  0
 49121  1  0  0  0  0
 50 51  2  0  0  0  0
 50 52  1  0  0  0  0
 52 53  2  0  0  0  0
 52 58  1  0  0  0  0
 53 54  1  0  0  0  0
 53122  1  0  0  0  0
 54 55  1  0  0  0  0
 54123  1  0  0  0  0
 55 56  2  0  0  0  0
 55 57  1  0  0  0  0
 57 58  2  0  0  0  0
 57124  1  0  0  0  0
 58 59  1  0  0  0  0
 59 60  1  0  0  0  0
 59 61  1  0  0  0  0
 59 62  1  0  0  0  0
 63125  1  0  0  0  0
 64 65  1  0  0  0  0
 64126  1  0  0  0  0
 65127  1  0  0  0  0
 66 67  1  0  0  0  0
 66 68  1  0  0  0  0
 66 69  1  0  0  0  0
 67128  1  0  0  0  0
 67129  1  0  0  0  0
 67130  1  0  0  0  0
 68131  1  0  0  0  0
 68132  1  0  0  0  0
 68133  1  0  0  0  0
 69134  1  0  0  0  0
 69135  1  0  0  0  0
 69136  1  0  0  0  0
 70 71  1  0  0  0  0
 70137  1  0  0  0  0
 71138  1  0  0  0  0
 72 73  1  0  0  0  0
 73 74  2  0  0  0  0
 73139  1  0  0  0  0
M  CHG  1  44   1
M  END
>  <Compound ID>
2288

>  <Uniprot>
P61964

>  <Target>
WDR5

>  <E3 ligase>
VHL

>  <Kd (nM, Protac to Target)>
11

>  <Assay (Protac to Target, Kd)>
ITC

>  <Article DOI>
10.1021/acs.jmedchem.1c00146

>  <Molecular Weight>
1040.223

>  <Exact Mass>
1039.4602

>  <XLogP3>
5.6599998

>  <Heavy Atom Count>
74

>  <Ring Count>
7

>  <Hydrogen Bond Acceptor Count>
11

>  <Hydrogen Bond Donor Count>
6

>  <Rotatable Bond Count>
18

>  <Topological Polar Surface Area>
209.17

>  <Molecular Formula>
C54H64F3N9O7S

>  <InChI>
InChI=1S/C54H64F3N9O7S/c1-33-47(74-32-61-33)36-13-11-34(12-14-36)29-60-51(72)44-27-39(67)31-66(44)52(73)48(53(2,3)4)63-45(68)10-8-6-7-9-21-58-49(70)37-17-15-35(16-18-37)38-19-20-43(65-24-22-64(5)23-25-65)42(26-38)62-50(71)40-30-59-46(69)28-41(40)54(55,56)57/h11-20,26,28,30,32,39,44,48,67H,6-10,21-25,27,29,31H2,1-5H3,(H,58,70)(H,59,69)(H,60,72)(H,62,71)(H,63,68)/t39-,44+,48-/m1/s1

>  <InChI Key>
BXKFHYMDHAHJSX-UOHLUGTHSA-N

>  <DC50 (nM)>
915

>  <Assay (DC50/Dmax)>
Degradation of WDR5-HiBiT in MV4-11 (WDR5-HiBiT) cells after 24 h treatment

$$$$
2289
  MOE2018           3D

137144  0  0  1  0  0  0  0  0999 V2000
   21.3810  -15.8260   -2.5270 C   0  0  0  0  0  0  0  0  0  0  0  0
   20.2020  -15.6380   -3.4530 C   0  0  0  0  0  0  0  0  0  0  0  0
   19.0090  -16.3100   -3.3580 C   0  0  0  0  0  0  0  0  0  0  0  0
   18.5830  -17.3040   -2.3800 C   0  0  0  0  0  0  0  0  0  0  0  0
   18.7480  -17.0790   -1.0080 C   0  0  0  0  0  0  0  0  0  0  0  0
   18.3530  -18.0340   -0.0790 C   0  0  0  0  0  0  0  0  0  0  0  0
   17.7800  -19.2330   -0.4980 C   0  0  0  0  0  0  0  0  0  0  0  0
   17.3590  -20.2690    0.5250 C   0  0  0  0  0  0  0  0  0  0  0  0
   16.0250  -19.8580    0.9380 N   0  0  0  0  0  0  0  0  0  0  0  0
   15.7770  -19.1090    2.0140 C   0  0  0  0  0  0  0  0  0  0  0  0
   16.6790  -18.8140    2.7970 O   0  0  0  0  0  0  0  0  0  0  0  0
   14.3010  -18.6870    2.2860 C   0  0  2  0  0  0  0  0  0  0  0  0
   14.0650  -18.1040    3.6910 C   0  0  0  0  0  0  0  0  0  0  0  0
   12.6570  -18.5510    4.0610 C   0  0  1  0  0  0  0  0  0  0  0  0
   11.7060  -17.6490    3.5260 O   0  0  0  0  0  0  0  0  0  0  0  0
   12.5850  -19.9190    3.3860 C   0  0  0  0  0  0  0  0  0  0  0  0
   13.2920  -19.7540    2.1150 N   0  0  0  0  0  0  0  0  0  0  0  0
   12.8550  -20.1290    0.8930 C   0  0  0  0  0  0  0  0  0  0  0  0
   13.4300  -19.7060   -0.1110 O   0  0  0  0  0  0  0  0  0  0  0  0
   11.6580  -21.1210    0.7350 C   0  0  1  0  0  0  0  0  0  0  0  0
   10.5230  -20.4970    0.0430 N   0  0  0  0  0  0  0  0  0  0  0  0
    9.7930  -19.5120    0.5630 C   0  0  0  0  0  0  0  0  0  0  0  0
   10.0460  -19.0660    1.6790 O   0  0  0  0  0  0  0  0  0  0  0  0
    8.6320  -18.9980   -0.2630 C   0  0  0  0  0  0  0  0  0  0  0  0
    7.7050  -20.1810   -0.5090 C   0  0  0  0  0  0  0  0  0  0  0  0
    7.0430  -20.7830    0.5600 C   0  0  0  0  0  0  0  0  0  0  0  0
    6.2140  -21.8790    0.3460 C   0  0  0  0  0  0  0  0  0  0  0  0
    6.0350  -22.3880   -0.9390 C   0  0  0  0  0  0  0  0  0  0  0  0
    5.1250  -23.5780   -1.1670 C   0  0  0  0  0  0  0  0  0  0  0  0
    3.8060  -22.9770   -1.2570 N   0  0  0  0  0  0  0  0  0  0  0  0
    2.6610  -23.7200   -1.2620 C   0  0  0  0  0  0  0  0  0  0  0  0
    2.7950  -24.9380   -1.2520 O   0  0  0  0  0  0  0  0  0  0  0  0
    1.3550  -23.0510   -1.2610 C   0  0  0  0  0  0  0  0  0  0  0  0
    0.2140  -23.7540   -0.8490 C   0  0  0  0  0  0  0  0  0  0  0  0
   -1.0320  -23.1420   -0.8270 C   0  0  0  0  0  0  0  0  0  0  0  0
   -1.1820  -21.8070   -1.2230 C   0  0  0  0  0  0  0  0  0  0  0  0
   -2.4880  -21.1590   -1.1970 C   0  0  0  0  0  0  0  0  0  0  0  0
   -3.6240  -21.8140   -1.6950 C   0  0  0  0  0  0  0  0  0  0  0  0
   -4.8730  -21.2010   -1.6720 C   0  0  0  0  0  0  0  0  0  0  0  0
   -5.0100  -19.9140   -1.1590 C   0  0  0  0  0  0  0  0  0  0  0  0
   -6.3070  -19.3510   -1.1830 N   0  0  0  0  0  0  0  0  0  0  0  0
   -6.4390  -18.2040   -2.1270 C   0  0  0  0  0  0  0  0  0  0  0  0
   -7.9270  -17.7950   -2.2150 C   0  0  0  0  0  0  0  0  0  0  0  0
   -8.3880  -17.4510   -0.8400 N   0  3  0  0  0  0  0  0  0  0  0  0
   -9.7510  -16.8990   -0.9050 C   0  0  0  0  0  0  0  0  0  0  0  0
   -8.4010  -18.7110   -0.0430 C   0  0  0  0  0  0  0  0  0  0  0  0
   -6.9340  -19.1540    0.1570 C   0  0  0  0  0  0  0  0  0  0  0  0
   -3.8690  -19.2390   -0.6650 C   0  0  0  0  0  0  0  0  0  0  0  0
   -4.0380  -17.9320   -0.1310 N   0  0  0  0  0  0  0  0  0  0  0  0
   -3.1630  -16.8710   -0.1050 C   0  0  0  0  0  0  0  0  0  0  0  0
   -2.0640  -17.0050   -0.6220 O   0  0  0  0  0  0  0  0  0  0  0  0
   -3.6310  -15.6310    0.5120 C   0  0  0  0  0  0  0  0  0  0  0  0
   -4.9490  -15.2530    0.3310 C   0  0  0  0  0  0  0  0  0  0  0  0
   -5.4240  -14.0830    0.8580 N   0  0  0  0  0  0  0  0  0  0  0  0
   -4.6440  -13.2220    1.5710 C   0  0  0  0  0  0  0  0  0  0  0  0
   -5.1940  -12.2020    1.9690 O   0  0  0  0  0  0  0  0  0  0  0  0
   -3.2810  -13.5940    1.7880 C   0  0  0  0  0  0  0  0  0  0  0  0
   -2.7620  -14.7680    1.2980 C   0  0  0  0  0  0  0  0  0  0  0  0
   -1.2970  -15.1410    1.6020 C   0  0  0  0  0  0  0  0  0  0  0  0
   -0.8210  -14.3650    2.5940 F   0  0  0  0  0  0  0  0  0  0  0  0
   -1.2140  -16.4150    2.0140 F   0  0  0  0  0  0  0  0  0  0  0  0
   -0.5330  -14.9410    0.5230 F   0  0  0  0  0  0  0  0  0  0  0  0
   -2.6270  -19.8670   -0.6730 C   0  0  0  0  0  0  0  0  0  0  0  0
   -0.0450  -21.1050   -1.6440 C   0  0  0  0  0  0  0  0  0  0  0  0
    1.2030  -21.7150   -1.6650 C   0  0  0  0  0  0  0  0  0  0  0  0
    6.6880  -21.7800   -2.0100 C   0  0  0  0  0  0  0  0  0  0  0  0
    7.5190  -20.6840   -1.7960 C   0  0  0  0  0  0  0  0  0  0  0  0
   12.0310  -22.4790    0.0560 C   0  0  0  0  0  0  0  0  0  0  0  0
   10.8470  -23.4640    0.1720 C   0  0  0  0  0  0  0  0  0  0  0  0
   12.3870  -22.3660   -1.4420 C   0  0  0  0  0  0  0  0  0  0  0  0
   13.2250  -23.1310    0.7810 C   0  0  0  0  0  0  0  0  0  0  0  0
   17.5930  -19.4580   -1.8610 C   0  0  0  0  0  0  0  0  0  0  0  0
   17.9900  -18.5030   -2.7910 C   0  0  0  0  0  0  0  0  0  0  0  0
   17.9650  -15.8090   -4.6240 S   0  0  0  0  0  0  0  0  0  0  0  0
   19.1880  -14.7290   -5.1650 C   0  0  0  0  0  0  0  0  0  0  0  0
   20.2890  -14.7440   -4.4710 N   0  0  0  0  0  0  0  0  0  0  0  0
   21.1360  -16.5760   -1.7750 H   0  0  0  0  0  0  0  0  0  0  0  0
   21.6120  -14.8810   -2.0360 H   0  0  0  0  0  0  0  0  0  0  0  0
   22.2460  -16.1570   -3.1020 H   0  0  0  0  0  0  0  0  0  0  0  0
   19.1870  -16.1530   -0.6680 H   0  0  0  0  0  0  0  0  0  0  0  0
   18.4910  -17.8460    0.9750 H   0  0  0  0  0  0  0  0  0  0  0  0
   18.0420  -20.2700    1.3750 H   0  0  0  0  0  0  0  0  0  0  0  0
   17.3340  -21.2630    0.0780 H   0  0  0  0  0  0  0  0  0  0  0  0
   15.2410  -20.1580    0.3770 H   0  0  0  0  0  0  0  0  0  0  0  0
   14.1640  -17.9280    1.5160 H   0  0  0  0  0  0  0  0  0  0  0  0
   14.1310  -17.0160    3.6720 H   0  0  0  0  0  0  0  0  0  0  0  0
   14.7930  -18.5000    4.3990 H   0  0  0  0  0  0  0  0  0  0  0  0
   12.4500  -18.5860    5.1310 H   0  0  0  0  0  0  0  0  0  0  0  0
   11.8590  -17.5930    2.5800 H   0  0  0  0  0  0  0  0  0  0  0  0
   11.5480  -20.2060    3.2130 H   0  0  0  0  0  0  0  0  0  0  0  0
   13.0740  -20.6750    4.0000 H   0  0  0  0  0  0  0  0  0  0  0  0
   11.3640  -21.3640    1.7560 H   0  0  0  0  0  0  0  0  0  0  0  0
   10.2830  -20.8340   -0.8780 H   0  0  0  0  0  0  0  0  0  0  0  0
    8.1040  -18.2150    0.2800 H   0  0  0  0  0  0  0  0  0  0  0  0
    8.9940  -18.6020   -1.2120 H   0  0  0  0  0  0  0  0  0  0  0  0
    7.1750  -20.3960    1.5600 H   0  0  0  0  0  0  0  0  0  0  0  0
    5.7060  -22.3390    1.1810 H   0  0  0  0  0  0  0  0  0  0  0  0
    5.1800  -24.2770   -0.3320 H   0  0  0  0  0  0  0  0  0  0  0  0
    5.3820  -24.0950   -2.0910 H   0  0  0  0  0  0  0  0  0  0  0  0
    3.7330  -21.9710   -1.3180 H   0  0  0  0  0  0  0  0  0  0  0  0
    0.3060  -24.7860   -0.5440 H   0  0  0  0  0  0  0  0  0  0  0  0
   -1.8960  -23.7020   -0.5010 H   0  0  0  0  0  0  0  0  0  0  0  0
   -3.5280  -22.8090   -2.1030 H   0  0  0  0  0  0  0  0  0  0  0  0
   -5.7380  -21.7240   -2.0530 H   0  0  0  0  0  0  0  0  0  0  0  0
   -5.8490  -17.3620   -1.7640 H   0  0  0  0  0  0  0  0  0  0  0  0
   -6.0820  -18.4990   -3.1140 H   0  0  0  0  0  0  0  0  0  0  0  0
   -8.5170  -18.6240   -2.6070 H   0  0  0  0  0  0  0  0  0  0  0  0
   -8.0360  -16.9300   -2.8700 H   0  0  0  0  0  0  0  0  0  0  0  0
   -7.7770  -16.7660   -0.4180 H   0  0  0  0  0  0  0  0  0  0  0  0
  -10.4180  -17.6310   -1.3600 H   0  0  0  0  0  0  0  0  0  0  0  0
   -9.7460  -15.9890   -1.5060 H   0  0  0  0  0  0  0  0  0  0  0  0
  -10.0980  -16.6670    0.1020 H   0  0  0  0  0  0  0  0  0  0  0  0
   -8.8710  -18.5340    0.9240 H   0  0  0  0  0  0  0  0  0  0  0  0
   -8.9530  -19.4840   -0.5790 H   0  0  0  0  0  0  0  0  0  0  0  0
   -6.9060  -20.0890    0.7160 H   0  0  0  0  0  0  0  0  0  0  0  0
   -6.3910  -18.3860    0.7070 H   0  0  0  0  0  0  0  0  0  0  0  0
   -4.9370  -17.7560    0.2940 H   0  0  0  0  0  0  0  0  0  0  0  0
   -5.6130  -15.8900   -0.2340 H   0  0  0  0  0  0  0  0  0  0  0  0
   -6.3950  -13.8470    0.7120 H   0  0  0  0  0  0  0  0  0  0  0  0
   -2.6410  -12.9330    2.3530 H   0  0  0  0  0  0  0  0  0  0  0  0
   -1.7650  -19.3550   -0.2730 H   0  0  0  0  0  0  0  0  0  0  0  0
   -0.1400  -20.0760   -1.9560 H   0  0  0  0  0  0  0  0  0  0  0  0
    2.0660  -21.1550   -1.9960 H   0  0  0  0  0  0  0  0  0  0  0  0
    6.5480  -22.1610   -3.0110 H   0  0  0  0  0  0  0  0  0  0  0  0
    8.0230  -20.2210   -2.6320 H   0  0  0  0  0  0  0  0  0  0  0  0
   11.1120  -24.4090   -0.3030 H   0  0  0  0  0  0  0  0  0  0  0  0
    9.9730  -23.0410   -0.3230 H   0  0  0  0  0  0  0  0  0  0  0  0
   10.6200  -23.6370    1.2240 H   0  0  0  0  0  0  0  0  0  0  0  0
   12.6330  -23.3540   -1.8330 H   0  0  0  0  0  0  0  0  0  0  0  0
   13.2440  -21.7040   -1.5630 H   0  0  0  0  0  0  0  0  0  0  0  0
   11.5350  -21.9610   -1.9880 H   0  0  0  0  0  0  0  0  0  0  0  0
   13.4730  -24.0750    0.2960 H   0  0  0  0  0  0  0  0  0  0  0  0
   12.9610  -23.3150    1.8220 H   0  0  0  0  0  0  0  0  0  0  0  0
   14.0860  -22.4630    0.7370 H   0  0  0  0  0  0  0  0  0  0  0  0
   17.1380  -20.3780   -2.1960 H   0  0  0  0  0  0  0  0  0  0  0  0
   17.8390  -18.6890   -3.8440 H   0  0  0  0  0  0  0  0  0  0  0  0
   19.0520  -14.0840   -6.0200 H   0  0  0  0  0  0  0  0  0  0  0  0
  1  2  1  0  0  0  0
  1 77  1  0  0  0  0
  1 78  1  0  0  0  0
  1 79  1  0  0  0  0
  2  3  2  0  0  0  0
  2 76  1  0  0  0  0
  3  4  1  0  0  0  0
  3 74  1  0  0  0  0
  4  5  1  0  0  0  0
  4 73  2  0  0  0  0
  5  6  2  0  0  0  0
  5 80  1  0  0  0  0
  6  7  1  0  0  0  0
  6 81  1  0  0  0  0
  7  8  1  0  0  0  0
  7 72  2  0  0  0  0
  8  9  1  0  0  0  0
  8 82  1  0  0  0  0
  8 83  1  0  0  0  0
  9 10  1  0  0  0  0
  9 84  1  0  0  0  0
 10 11  2  0  0  0  0
 10 12  1  0  0  0  0
 12 13  1  0  0  0  0
 12 17  1  0  0  0  0
 12 85  1  0  0  0  0
 13 14  1  0  0  0  0
 13 86  1  0  0  0  0
 13 87  1  0  0  0  0
 14 15  1  0  0  0  0
 14 16  1  0  0  0  0
 14 88  1  0  0  0  0
 15 89  1  0  0  0  0
 16 17  1  0  0  0  0
 16 90  1  0  0  0  0
 16 91  1  0  0  0  0
 17 18  1  0  0  0  0
 18 19  2  0  0  0  0
 18 20  1  0  0  0  0
 20 21  1  0  0  0  0
 20 68  1  0  0  0  0
 20 92  1  0  0  0  0
 21 22  1  0  0  0  0
 21 93  1  0  0  0  0
 22 23  2  0  0  0  0
 22 24  1  0  0  0  0
 24 25  1  0  0  0  0
 24 94  1  0  0  0  0
 24 95  1  0  0  0  0
 25 26  1  0  0  0  0
 25 67  2  0  0  0  0
 26 27  2  0  0  0  0
 26 96  1  0  0  0  0
 27 28  1  0  0  0  0
 27 97  1  0  0  0  0
 28 29  1  0  0  0  0
 28 66  2  0  0  0  0
 29 30  1  0  0  0  0
 29 98  1  0  0  0  0
 29 99  1  0  0  0  0
 30 31  1  0  0  0  0
 30100  1  0  0  0  0
 31 32  2  0  0  0  0
 31 33  1  0  0  0  0
 33 34  1  0  0  0  0
 33 65  2  0  0  0  0
 34 35  2  0  0  0  0
 34101  1  0  0  0  0
 35 36  1  0  0  0  0
 35102  1  0  0  0  0
 36 37  1  0  0  0  0
 36 64  2  0  0  0  0
 37 38  2  0  0  0  0
 37 63  1  0  0  0  0
 38 39  1  0  0  0  0
 38103  1  0  0  0  0
 39 40  2  0  0  0  0
 39104  1  0  0  0  0
 40 41  1  0  0  0  0
 40 48  1  0  0  0  0
 41 42  1  0  0  0  0
 41 47  1  0  0  0  0
 42 43  1  0  0  0  0
 42105  1  0  0  0  0
 42106  1  0  0  0  0
 43 44  1  0  0  0  0
 43107  1  0  0  0  0
 43108  1  0  0  0  0
 44 45  1  0  0  0  0
 44 46  1  0  0  0  0
 44109  1  0  0  0  0
 45110  1  0  0  0  0
 45111  1  0  0  0  0
 45112  1  0  0  0  0
 46 47  1  0  0  0  0
 46113  1  0  0  0  0
 46114  1  0  0  0  0
 47115  1  0  0  0  0
 47116  1  0  0  0  0
 48 49  1  0  0  0  0
 48 63  2  0  0  0  0
 49 50  1  0  0  0  0
 49117  1  0  0  0  0
 50 51  2  0  0  0  0
 50 52  1  0  0  0  0
 52 53  2  0  0  0  0
 52 58  1  0  0  0  0
 53 54  1  0  0  0  0
 53118  1  0  0  0  0
 54 55  1  0  0  0  0
 54119  1  0  0  0  0
 55 56  2  0  0  0  0
 55 57  1  0  0  0  0
 57 58  2  0  0  0  0
 57120  1  0  0  0  0
 58 59  1  0  0  0  0
 59 60  1  0  0  0  0
 59 61  1  0  0  0  0
 59 62  1  0  0  0  0
 63121  1  0  0  0  0
 64 65  1  0  0  0  0
 64122  1  0  0  0  0
 65123  1  0  0  0  0
 66 67  1  0  0  0  0
 66124  1  0  0  0  0
 67125  1  0  0  0  0
 68 69  1  0  0  0  0
 68 70  1  0  0  0  0
 68 71  1  0  0  0  0
 69126  1  0  0  0  0
 69127  1  0  0  0  0
 69128  1  0  0  0  0
 70129  1  0  0  0  0
 70130  1  0  0  0  0
 70131  1  0  0  0  0
 71132  1  0  0  0  0
 71133  1  0  0  0  0
 71134  1  0  0  0  0
 72 73  1  0  0  0  0
 72135  1  0  0  0  0
 73136  1  0  0  0  0
 74 75  1  0  0  0  0
 75 76  2  0  0  0  0
 75137  1  0  0  0  0
M  CHG  1  44   1
M  END
>  <Compound ID>
2289

>  <Uniprot>
P61964

>  <Target>
WDR5

>  <E3 ligase>
VHL

>  <Kd (nM, Protac to Target)>
33

>  <Assay (Protac to Target, Kd)>
ITC

>  <Article DOI>
10.1021/acs.jmedchem.1c00146

>  <Molecular Weight>
1060.213

>  <Exact Mass>
1059.4288

>  <XLogP3>
5.5100002

>  <Heavy Atom Count>
76

>  <Ring Count>
8

>  <Hydrogen Bond Acceptor Count>
11

>  <Hydrogen Bond Donor Count>
6

>  <Rotatable Bond Count>
15

>  <Topological Polar Surface Area>
209.17

>  <Molecular Formula>
C56H60F3N9O7S

>  <InChI>
InChI=1S/C56H60F3N9O7S/c1-33-49(76-32-63-33)38-12-10-36(11-13-38)29-62-53(74)46-26-41(69)31-68(46)54(75)50(55(2,3)4)65-48(71)24-34-6-8-35(9-7-34)28-61-51(72)39-16-14-37(15-17-39)40-18-19-45(67-22-20-66(5)21-23-67)44(25-40)64-52(73)42-30-60-47(70)27-43(42)56(57,58)59/h6-19,25,27,30,32,41,46,50,69H,20-24,26,28-29,31H2,1-5H3,(H,60,70)(H,61,72)(H,62,74)(H,64,73)(H,65,71)/t41-,46+,50-/m1/s1

>  <InChI Key>
PJYZWCPLYVFKHH-PNWJTEEHSA-N

$$$$
2293
  MOE2018           3D

121127  0  0  1  0  0  0  0  0999 V2000
   17.7070  -20.3520   -3.4850 C   0  0  0  0  0  0  0  0  0  0  0  0
   17.8270  -19.2660   -2.4420 C   0  0  0  0  0  0  0  0  0  0  0  0
   16.9550  -19.0720   -1.4010 C   0  0  0  0  0  0  0  0  0  0  0  0
   15.7410  -19.8060   -1.0630 C   0  0  0  0  0  0  0  0  0  0  0  0
   14.7520  -20.0470   -2.0240 C   0  0  0  0  0  0  0  0  0  0  0  0
   13.5990  -20.7530   -1.6980 C   0  0  0  0  0  0  0  0  0  0  0  0
   13.4090  -21.2320   -0.4030 C   0  0  0  0  0  0  0  0  0  0  0  0
   12.1530  -21.9940   -0.0400 C   0  0  0  0  0  0  0  0  0  0  0  0
   11.2750  -20.9610    0.4830 N   0  0  0  0  0  0  0  0  0  0  0  0
   10.2450  -21.2410    1.2850 C   0  0  0  0  0  0  0  0  0  0  0  0
   10.0530  -22.3880    1.6840 O   0  0  0  0  0  0  0  0  0  0  0  0
    9.3770  -20.0620    1.8040 C   0  0  2  0  0  0  0  0  0  0  0  0
    9.7340  -19.6970    3.2530 C   0  0  0  0  0  0  0  0  0  0  0  0
    8.4010  -19.3550    3.9110 C   0  0  1  0  0  0  0  0  0  0  0  0
    8.1000  -17.9940    3.6810 O   0  0  0  0  0  0  0  0  0  0  0  0
    7.4130  -20.2580    3.1720 C   0  0  0  0  0  0  0  0  0  0  0  0
    7.9360  -20.3380    1.8140 N   0  0  0  0  0  0  0  0  0  0  0  0
    7.2510  -20.5320    0.6700 C   0  0  0  0  0  0  0  0  0  0  0  0
    7.8070  -20.3180   -0.4100 O   0  0  0  0  0  0  0  0  0  0  0  0
    5.7680  -21.0120    0.6930 C   0  0  1  0  0  0  0  0  0  0  0  0
    4.9900  -20.3150   -0.3440 N   0  0  0  0  0  0  0  0  0  0  0  0
    3.7950  -19.7690   -0.1460 C   0  0  0  0  0  0  0  0  0  0  0  0
    3.2460  -19.7940    0.9490 O   0  0  0  0  0  0  0  0  0  0  0  0
    3.1340  -19.1050   -1.3450 C   0  0  0  0  0  0  0  0  0  0  0  0
    1.6800  -18.7230   -1.0720 C   0  0  0  0  0  0  0  0  0  0  0  0
    1.1540  -18.1310   -2.2500 O   0  0  0  0  0  0  0  0  0  0  0  0
   -0.2180  -17.7840   -2.1220 C   0  0  0  0  0  0  0  0  0  0  0  0
   -0.6800  -17.1390   -3.4290 C   0  0  0  0  0  0  0  0  0  0  0  0
   -2.0670  -16.7490   -3.2290 O   0  0  0  0  0  0  0  0  0  0  0  0
   -2.5380  -15.6300   -2.5670 C   0  0  0  0  0  0  0  0  0  0  0  0
   -1.6580  -14.6900   -2.0280 C   0  0  0  0  0  0  0  0  0  0  0  0
   -2.1590  -13.5780   -1.3620 C   0  0  0  0  0  0  0  0  0  0  0  0
   -3.5400  -13.3790   -1.2280 C   0  0  0  0  0  0  0  0  0  0  0  0
   -4.0800  -12.2240   -0.5080 C   0  0  0  0  0  0  0  0  0  0  0  0
   -3.3980  -11.1020   -0.1350 C   0  0  0  0  0  0  0  0  0  0  0  0
   -4.2890  -10.3300    0.4950 N   0  3  0  0  0  0  0  0  0  0  0  0
   -4.3060   -9.0380    1.1300 C   0  0  0  0  0  0  0  0  0  0  0  0
   -5.6260   -9.1350    1.9450 C   0  0  0  0  0  0  0  0  0  0  0  0
   -6.5120  -10.1500    1.1820 C   0  0  0  0  0  0  0  0  0  0  0  0
   -5.4570  -10.9630    0.4970 C   0  0  0  0  0  0  0  0  0  0  0  0
   -5.3920  -12.1130   -0.0940 N   0  0  0  0  0  0  0  0  0  0  0  0
   -4.4030  -14.3260   -1.7960 C   0  0  0  0  0  0  0  0  0  0  0  0
   -3.9210  -15.4590   -2.4530 C   0  0  0  0  0  0  0  0  0  0  0  0
   -4.8940  -16.4720   -3.0310 C   0  0  0  0  0  0  0  0  0  0  0  0
   -5.7000  -16.8710   -1.8880 N   0  0  0  0  0  0  0  0  0  0  0  0
   -6.6210  -17.8310   -1.9430 C   0  0  0  0  0  0  0  0  0  0  0  0
   -6.8320  -18.4430   -2.9830 O   0  0  0  0  0  0  0  0  0  0  0  0
   -7.3840  -18.1310   -0.6690 C   0  0  0  0  0  0  0  0  0  0  0  0
   -6.3640  -18.5620    0.3760 C   0  0  0  0  0  0  0  0  0  0  0  0
   -6.0620  -17.7310    1.4560 C   0  0  0  0  0  0  0  0  0  0  0  0
   -5.1150  -18.1210    2.4000 C   0  0  0  0  0  0  0  0  0  0  0  0
   -4.4620  -19.3450    2.2740 C   0  0  0  0  0  0  0  0  0  0  0  0
   -3.2880  -19.7990    3.4670 Cl  0  0  0  0  0  0  0  0  0  0  0  0
   -4.7610  -20.1850    1.1890 C   0  0  0  0  0  0  0  0  0  0  0  0
   -3.9680  -21.7140    0.9910 Cl  0  0  0  0  0  0  0  0  0  0  0  0
   -5.7100  -19.7880    0.2480 C   0  0  0  0  0  0  0  0  0  0  0  0
    5.6250  -22.5650    0.5470 C   0  0  0  0  0  0  0  0  0  0  0  0
    6.1760  -23.0950   -0.7930 C   0  0  0  0  0  0  0  0  0  0  0  0
    4.1470  -23.0000    0.6470 C   0  0  0  0  0  0  0  0  0  0  0  0
    6.3640  -23.3040    1.6800 C   0  0  0  0  0  0  0  0  0  0  0  0
   14.3830  -20.9850    0.5640 C   0  0  0  0  0  0  0  0  0  0  0  0
   15.5360  -20.2790    0.2370 C   0  0  0  0  0  0  0  0  0  0  0  0
   17.4820  -17.7500   -0.4450 S   0  0  0  0  0  0  0  0  0  0  0  0
   18.8090  -17.5420   -1.5180 C   0  0  0  0  0  0  0  0  0  0  0  0
   18.8650  -18.3920   -2.5020 N   0  0  0  0  0  0  0  0  0  0  0  0
   16.8220  -20.9550   -3.2820 H   0  0  0  0  0  0  0  0  0  0  0  0
   18.5930  -20.9860   -3.4530 H   0  0  0  0  0  0  0  0  0  0  0  0
   17.6190  -19.8990   -4.4730 H   0  0  0  0  0  0  0  0  0  0  0  0
   14.8860  -19.6800   -3.0310 H   0  0  0  0  0  0  0  0  0  0  0  0
   12.8470  -20.9310   -2.4520 H   0  0  0  0  0  0  0  0  0  0  0  0
   12.3600  -22.7500    0.7170 H   0  0  0  0  0  0  0  0  0  0  0  0
   11.7170  -22.4690   -0.9190 H   0  0  0  0  0  0  0  0  0  0  0  0
   11.4500  -19.9990    0.2310 H   0  0  0  0  0  0  0  0  0  0  0  0
    9.5940  -19.2550    1.1040 H   0  0  0  0  0  0  0  0  0  0  0  0
   10.4050  -18.8390    3.2780 H   0  0  0  0  0  0  0  0  0  0  0  0
   10.2050  -20.5410    3.7560 H   0  0  0  0  0  0  0  0  0  0  0  0
    8.3860  -19.5040    4.9910 H   0  0  0  0  0  0  0  0  0  0  0  0
    8.1100  -17.8510    2.7320 H   0  0  0  0  0  0  0  0  0  0  0  0
    6.4150  -19.8200    3.1750 H   0  0  0  0  0  0  0  0  0  0  0  0
    7.3780  -21.2460    3.6300 H   0  0  0  0  0  0  0  0  0  0  0  0
    5.3680  -20.7580    1.6750 H   0  0  0  0  0  0  0  0  0  0  0  0
    5.3920  -20.2470   -1.2680 H   0  0  0  0  0  0  0  0  0  0  0  0
    3.6910  -18.2030   -1.5970 H   0  0  0  0  0  0  0  0  0  0  0  0
    3.1620  -19.7960   -2.1870 H   0  0  0  0  0  0  0  0  0  0  0  0
    1.6330  -18.0120   -0.2480 H   0  0  0  0  0  0  0  0  0  0  0  0
    1.1050  -19.6130   -0.8170 H   0  0  0  0  0  0  0  0  0  0  0  0
   -0.8070  -18.6800   -1.9260 H   0  0  0  0  0  0  0  0  0  0  0  0
   -0.3440  -17.0790   -1.3000 H   0  0  0  0  0  0  0  0  0  0  0  0
   -0.6040  -17.8530   -4.2490 H   0  0  0  0  0  0  0  0  0  0  0  0
   -0.0710  -16.2630   -3.6530 H   0  0  0  0  0  0  0  0  0  0  0  0
   -0.5910  -14.8260   -2.1280 H   0  0  0  0  0  0  0  0  0  0  0  0
   -1.4740  -12.8560   -0.9410 H   0  0  0  0  0  0  0  0  0  0  0  0
   -2.3550  -10.8830   -0.3120 H   0  0  0  0  0  0  0  0  0  0  0  0
   -3.4420   -8.8980    1.7800 H   0  0  0  0  0  0  0  0  0  0  0  0
   -4.3440   -8.2310    0.3980 H   0  0  0  0  0  0  0  0  0  0  0  0
   -5.4240   -9.4900    2.9560 H   0  0  0  0  0  0  0  0  0  0  0  0
   -6.1160   -8.1630    1.9930 H   0  0  0  0  0  0  0  0  0  0  0  0
   -7.1680   -9.6550    0.4660 H   0  0  0  0  0  0  0  0  0  0  0  0
   -7.1090  -10.7560    1.8630 H   0  0  0  0  0  0  0  0  0  0  0  0
   -6.1380  -12.7820   -0.2240 H   0  0  0  0  0  0  0  0  0  0  0  0
   -5.4700  -14.1750   -1.7230 H   0  0  0  0  0  0  0  0  0  0  0  0
   -4.3620  -17.3270   -3.4480 H   0  0  0  0  0  0  0  0  0  0  0  0
   -5.5140  -16.0180   -3.8040 H   0  0  0  0  0  0  0  0  0  0  0  0
   -5.5540  -16.3960   -1.0090 H   0  0  0  0  0  0  0  0  0  0  0  0
   -7.9110  -17.2390   -0.3310 H   0  0  0  0  0  0  0  0  0  0  0  0
   -8.1010  -18.9330   -0.8430 H   0  0  0  0  0  0  0  0  0  0  0  0
   -6.5650  -16.7810    1.5600 H   0  0  0  0  0  0  0  0  0  0  0  0
   -4.8860  -17.4720    3.2330 H   0  0  0  0  0  0  0  0  0  0  0  0
   -5.9410  -20.4340   -0.5860 H   0  0  0  0  0  0  0  0  0  0  0  0
    6.0490  -24.1770   -0.8360 H   0  0  0  0  0  0  0  0  0  0  0  0
    7.2350  -22.8500   -0.8730 H   0  0  0  0  0  0  0  0  0  0  0  0
    5.6330  -22.6330   -1.6170 H   0  0  0  0  0  0  0  0  0  0  0  0
    4.0790  -24.0830    0.5420 H   0  0  0  0  0  0  0  0  0  0  0  0
    3.5730  -22.5210   -0.1460 H   0  0  0  0  0  0  0  0  0  0  0  0
    3.7460  -22.7030    1.6160 H   0  0  0  0  0  0  0  0  0  0  0  0
    6.2460  -24.3800    1.5500 H   0  0  0  0  0  0  0  0  0  0  0  0
    5.9460  -23.0060    2.6410 H   0  0  0  0  0  0  0  0  0  0  0  0
    7.4230  -23.0490    1.6500 H   0  0  0  0  0  0  0  0  0  0  0  0
   14.2410  -21.3440    1.5730 H   0  0  0  0  0  0  0  0  0  0  0  0
   16.2820  -20.0940    0.9960 H   0  0  0  0  0  0  0  0  0  0  0  0
   19.5440  -16.7620   -1.3850 H   0  0  0  0  0  0  0  0  0  0  0  0
  1  2  1  0  0  0  0
  1 66  1  0  0  0  0
  1 67  1  0  0  0  0
  1 68  1  0  0  0  0
  2  3  2  0  0  0  0
  2 65  1  0  0  0  0
  3  4  1  0  0  0  0
  3 63  1  0  0  0  0
  4  5  1  0  0  0  0
  4 62  2  0  0  0  0
  5  6  2  0  0  0  0
  5 69  1  0  0  0  0
  6  7  1  0  0  0  0
  6 70  1  0  0  0  0
  7  8  1  0  0  0  0
  7 61  2  0  0  0  0
  8  9  1  0  0  0  0
  8 71  1  0  0  0  0
  8 72  1  0  0  0  0
  9 10  1  0  0  0  0
  9 73  1  0  0  0  0
 10 11  2  0  0  0  0
 10 12  1  0  0  0  0
 12 13  1  0  0  0  0
 12 17  1  0  0  0  0
 12 74  1  0  0  0  0
 13 14  1  0  0  0  0
 13 75  1  0  0  0  0
 13 76  1  0  0  0  0
 14 15  1  0  0  0  0
 14 16  1  0  0  0  0
 14 77  1  0  0  0  0
 15 78  1  0  0  0  0
 16 17  1  0  0  0  0
 16 79  1  0  0  0  0
 16 80  1  0  0  0  0
 17 18  1  0  0  0  0
 18 19  2  0  0  0  0
 18 20  1  0  0  0  0
 20 21  1  0  0  0  0
 20 57  1  0  0  0  0
 20 81  1  0  0  0  0
 21 22  1  0  0  0  0
 21 82  1  0  0  0  0
 22 23  2  0  0  0  0
 22 24  1  0  0  0  0
 24 25  1  0  0  0  0
 24 83  1  0  0  0  0
 24 84  1  0  0  0  0
 25 26  1  0  0  0  0
 25 85  1  0  0  0  0
 25 86  1  0  0  0  0
 26 27  1  0  0  0  0
 27 28  1  0  0  0  0
 27 87  1  0  0  0  0
 27 88  1  0  0  0  0
 28 29  1  0  0  0  0
 28 89  1  0  0  0  0
 28 90  1  0  0  0  0
 29 30  1  0  0  0  0
 30 31  1  0  0  0  0
 30 43  2  0  0  0  0
 31 32  2  0  0  0  0
 31 91  1  0  0  0  0
 32 33  1  0  0  0  0
 32 92  1  0  0  0  0
 33 34  1  0  0  0  0
 33 42  2  0  0  0  0
 34 35  2  0  0  0  0
 34 41  1  0  0  0  0
 35 36  1  0  0  0  0
 35 93  1  0  0  0  0
 36 37  1  0  0  0  0
 36 40  2  0  0  0  0
 37 38  1  0  0  0  0
 37 94  1  0  0  0  0
 37 95  1  0  0  0  0
 38 39  1  0  0  0  0
 38 96  1  0  0  0  0
 38 97  1  0  0  0  0
 39 40  1  0  0  0  0
 39 98  1  0  0  0  0
 39 99  1  0  0  0  0
 40 41  1  0  0  0  0
 41100  1  0  0  0  0
 42 43  1  0  0  0  0
 42101  1  0  0  0  0
 43 44  1  0  0  0  0
 44 45  1  0  0  0  0
 44102  1  0  0  0  0
 44103  1  0  0  0  0
 45 46  1  0  0  0  0
 45104  1  0  0  0  0
 46 47  2  0  0  0  0
 46 48  1  0  0  0  0
 48 49  1  0  0  0  0
 48105  1  0  0  0  0
 48106  1  0  0  0  0
 49 50  2  0  0  0  0
 49 56  1  0  0  0  0
 50 51  1  0  0  0  0
 50107  1  0  0  0  0
 51 52  2  0  0  0  0
 51108  1  0  0  0  0
 52 53  1  0  0  0  0
 52 54  1  0  0  0  0
 54 55  1  0  0  0  0
 54 56  2  0  0  0  0
 56109  1  0  0  0  0
 57 58  1  0  0  0  0
 57 59  1  0  0  0  0
 57 60  1  0  0  0  0
 58110  1  0  0  0  0
 58111  1  0  0  0  0
 58112  1  0  0  0  0
 59113  1  0  0  0  0
 59114  1  0  0  0  0
 59115  1  0  0  0  0
 60116  1  0  0  0  0
 60117  1  0  0  0  0
 60118  1  0  0  0  0
 61 62  1  0  0  0  0
 61119  1  0  0  0  0
 62120  1  0  0  0  0
 63 64  1  0  0  0  0
 64 65  2  0  0  0  0
 64121  1  0  0  0  0
M  CHG  1  36   1
M  END
>  <Compound ID>
2293

>  <Uniprot>
P61964

>  <Target>
WDR5

>  <E3 ligase>
VHL

>  <Dmax (%)>
N.D.

>  <Article DOI>
10.1021/acs.jmedchem.1c00146

>  <Molecular Weight>
944.98297

>  <Exact Mass>
943.32605

>  <XLogP3>
5.8400002

>  <Heavy Atom Count>
65

>  <Ring Count>
7

>  <Hydrogen Bond Acceptor Count>
11

>  <Hydrogen Bond Donor Count>
4

>  <Rotatable Bond Count>
18

>  <Topological Polar Surface Area>
177.00999

>  <Molecular Formula>
C48H55Cl2N7O7S

>  <InChI>
InChI=1S/C48H55Cl2N7O7S/c1-29-44(65-28-53-29)32-10-7-30(8-11-32)24-52-46(61)39-23-35(58)26-57(39)47(62)45(48(2,3)4)55-42(59)15-17-63-18-19-64-40-14-12-33(38-27-56-16-5-6-41(56)54-38)22-34(40)25-51-43(60)21-31-9-13-36(49)37(50)20-31/h7-14,20,22,27-28,35,39,45,58H,5-6,15-19,21,23-26H2,1-4H3,(H,51,60)(H,52,61)(H,55,59)/t35-,39+,45-/m1/s1

>  <InChI Key>
HXWVYVXJBYTQQT-TZEXNLEWSA-N

$$$$
2294
  MOE2018           3D

128134  0  0  1  0  0  0  0  0999 V2000
    5.6720  -11.7010    0.5100 C   0  0  0  0  0  0  0  0  0  0  0  0
    7.1810  -11.7400    0.5660 C   0  0  0  0  0  0  0  0  0  0  0  0
    7.9520  -12.8420    0.2970 C   0  0  0  0  0  0  0  0  0  0  0  0
    7.5420  -14.1780   -0.1180 C   0  0  0  0  0  0  0  0  0  0  0  0
    6.6710  -14.3620   -1.1980 C   0  0  0  0  0  0  0  0  0  0  0  0
    6.2910  -15.6390   -1.5960 C   0  0  0  0  0  0  0  0  0  0  0  0
    6.7790  -16.7610   -0.9270 C   0  0  0  0  0  0  0  0  0  0  0  0
    6.3830  -18.1570   -1.3580 C   0  0  0  0  0  0  0  0  0  0  0  0
    5.2540  -18.4900   -0.5020 N   0  0  0  0  0  0  0  0  0  0  0  0
    5.3590  -19.2140    0.6140 C   0  0  0  0  0  0  0  0  0  0  0  0
    6.4180  -19.7540    0.9290 O   0  0  0  0  0  0  0  0  0  0  0  0
    4.0610  -19.4220    1.4450 C   0  0  2  0  0  0  0  0  0  0  0  0
    4.2030  -20.3570    2.6500 C   0  0  0  0  0  0  0  0  0  0  0  0
    3.8720  -21.7370    2.0840 C   0  0  1  0  0  0  0  0  0  0  0  0
    3.2790  -22.5250    3.0960 O   0  0  0  0  0  0  0  0  0  0  0  0
    2.9000  -21.4510    0.9310 C   0  0  0  0  0  0  0  0  0  0  0  0
    2.9830  -20.0200    0.6520 N   0  0  0  0  0  0  0  0  0  0  0  0
    2.2120  -19.3090   -0.1950 C   0  0  0  0  0  0  0  0  0  0  0  0
    2.3930  -18.0940   -0.3010 O   0  0  0  0  0  0  0  0  0  0  0  0
    1.1460  -20.0200   -1.0790 C   0  0  1  0  0  0  0  0  0  0  0  0
   -0.1790  -19.3980   -0.9230 N   0  0  0  0  0  0  0  0  0  0  0  0
   -1.2300  -20.0280   -0.4090 C   0  0  0  0  0  0  0  0  0  0  0  0
   -1.1530  -21.1820   -0.0040 O   0  0  0  0  0  0  0  0  0  0  0  0
   -2.5380  -19.2540   -0.3420 C   0  0  0  0  0  0  0  0  0  0  0  0
   -3.7030  -20.1220    0.1330 C   0  0  0  0  0  0  0  0  0  0  0  0
   -4.8840  -19.3390    0.1010 O   0  0  0  0  0  0  0  0  0  0  0  0
   -6.0330  -20.0800    0.4920 C   0  0  0  0  0  0  0  0  0  0  0  0
   -7.2730  -19.1940    0.4020 C   0  0  0  0  0  0  0  0  0  0  0  0
   -8.4260  -19.9870    0.6570 O   0  0  0  0  0  0  0  0  0  0  0  0
   -9.6320  -19.2390    0.5990 C   0  0  0  0  0  0  0  0  0  0  0  0
  -10.7980  -20.1990    0.8190 C   0  0  0  0  0  0  0  0  0  0  0  0
  -11.9930  -19.3800    0.7860 O   0  0  0  0  0  0  0  0  0  0  0  0
  -13.2830  -19.8760    0.7950 C   0  0  0  0  0  0  0  0  0  0  0  0
  -13.5280  -21.2450    0.9170 C   0  0  0  0  0  0  0  0  0  0  0  0
  -14.8370  -21.7110    0.9120 C   0  0  0  0  0  0  0  0  0  0  0  0
  -15.9210  -20.8310    0.7830 C   0  0  0  0  0  0  0  0  0  0  0  0
  -17.2950  -21.3420    0.7760 C   0  0  0  0  0  0  0  0  0  0  0  0
  -18.4370  -20.6190    0.5800 C   0  0  0  0  0  0  0  0  0  0  0  0
  -19.4400  -21.4990    0.6580 N   0  3  0  0  0  0  0  0  0  0  0  0
  -20.8780  -21.4760    0.5660 C   0  0  0  0  0  0  0  0  0  0  0  0
  -21.1780  -22.9870    0.3530 C   0  0  0  0  0  0  0  0  0  0  0  0
  -19.9910  -23.7420    1.0000 C   0  0  0  0  0  0  0  0  0  0  0  0
  -18.9220  -22.6980    0.8930 C   0  0  0  0  0  0  0  0  0  0  0  0
  -17.6320  -22.6660    0.9740 N   0  0  0  0  0  0  0  0  0  0  0  0
  -15.6480  -19.4590    0.6650 C   0  0  0  0  0  0  0  0  0  0  0  0
  -14.3420  -18.9730    0.6760 C   0  0  0  0  0  0  0  0  0  0  0  0
  -14.0870  -17.4870    0.5520 C   0  0  0  0  0  0  0  0  0  0  0  0
  -14.0820  -17.2500   -0.8840 N   0  0  0  0  0  0  0  0  0  0  0  0
  -13.7470  -16.1220   -1.5030 C   0  0  0  0  0  0  0  0  0  0  0  0
  -13.6950  -16.1470   -2.7230 O   0  0  0  0  0  0  0  0  0  0  0  0
  -13.4080  -14.8580   -0.7270 C   0  0  0  0  0  0  0  0  0  0  0  0
  -12.0340  -15.0460   -0.0940 C   0  0  0  0  0  0  0  0  0  0  0  0
  -11.8550  -14.8270    1.2730 C   0  0  0  0  0  0  0  0  0  0  0  0
  -10.6050  -15.0150    1.8590 C   0  0  0  0  0  0  0  0  0  0  0  0
   -9.5200  -15.4160    1.0830 C   0  0  0  0  0  0  0  0  0  0  0  0
   -7.9820  -15.6580    1.8460 Cl  0  0  0  0  0  0  0  0  0  0  0  0
   -9.6890  -15.6220   -0.2960 C   0  0  0  0  0  0  0  0  0  0  0  0
   -8.3630  -16.1130   -1.2980 Cl  0  0  0  0  0  0  0  0  0  0  0  0
  -10.9430  -15.4340   -0.8740 C   0  0  0  0  0  0  0  0  0  0  0  0
    1.5370  -20.1230   -2.5900 C   0  0  0  0  0  0  0  0  0  0  0  0
    1.5920  -18.7610   -3.3130 C   0  0  0  0  0  0  0  0  0  0  0  0
    0.5190  -21.0050   -3.3440 C   0  0  0  0  0  0  0  0  0  0  0  0
    2.9130  -20.8010   -2.7590 C   0  0  0  0  0  0  0  0  0  0  0  0
    7.6420  -16.5850    0.1540 C   0  0  0  0  0  0  0  0  0  0  0  0
    8.0210  -15.3090    0.5520 C   0  0  0  0  0  0  0  0  0  0  0  0
    9.6080  -12.4530    0.5090 S   0  0  0  0  0  0  0  0  0  0  0  0
    9.1480  -10.8480    0.9160 C   0  0  0  0  0  0  0  0  0  0  0  0
    7.8670  -10.6190    0.9070 N   0  0  0  0  0  0  0  0  0  0  0  0
    5.2940  -12.6820    0.2220 H   0  0  0  0  0  0  0  0  0  0  0  0
    5.3550  -10.9590   -0.2230 H   0  0  0  0  0  0  0  0  0  0  0  0
    5.2790  -11.4340    1.4910 H   0  0  0  0  0  0  0  0  0  0  0  0
    6.2900  -13.5020   -1.7280 H   0  0  0  0  0  0  0  0  0  0  0  0
    5.6140  -15.7630   -2.4280 H   0  0  0  0  0  0  0  0  0  0  0  0
    7.2040  -18.8570   -1.2030 H   0  0  0  0  0  0  0  0  0  0  0  0
    6.0890  -18.1680   -2.4070 H   0  0  0  0  0  0  0  0  0  0  0  0
    4.3390  -18.1540   -0.7680 H   0  0  0  0  0  0  0  0  0  0  0  0
    3.8410  -18.4070    1.7760 H   0  0  0  0  0  0  0  0  0  0  0  0
    3.5020  -20.0830    3.4390 H   0  0  0  0  0  0  0  0  0  0  0  0
    5.2200  -20.3320    3.0430 H   0  0  0  0  0  0  0  0  0  0  0  0
    4.7430  -22.2910    1.7350 H   0  0  0  0  0  0  0  0  0  0  0  0
    2.5080  -22.0520    3.4170 H   0  0  0  0  0  0  0  0  0  0  0  0
    1.8840  -21.7180    1.2220 H   0  0  0  0  0  0  0  0  0  0  0  0
    3.1870  -22.0220    0.0480 H   0  0  0  0  0  0  0  0  0  0  0  0
    1.1020  -21.0450   -0.7110 H   0  0  0  0  0  0  0  0  0  0  0  0
   -0.2960  -18.4410   -1.2230 H   0  0  0  0  0  0  0  0  0  0  0  0
   -2.4170  -18.4210    0.3500 H   0  0  0  0  0  0  0  0  0  0  0  0
   -2.7690  -18.8700   -1.3360 H   0  0  0  0  0  0  0  0  0  0  0  0
   -3.5160  -20.4650    1.1510 H   0  0  0  0  0  0  0  0  0  0  0  0
   -3.8140  -20.9830   -0.5260 H   0  0  0  0  0  0  0  0  0  0  0  0
   -6.1530  -20.9380   -0.1690 H   0  0  0  0  0  0  0  0  0  0  0  0
   -5.9090  -20.4260    1.5180 H   0  0  0  0  0  0  0  0  0  0  0  0
   -7.3410  -18.7600   -0.5960 H   0  0  0  0  0  0  0  0  0  0  0  0
   -7.2070  -18.3960    1.1420 H   0  0  0  0  0  0  0  0  0  0  0  0
   -9.6310  -18.4750    1.3770 H   0  0  0  0  0  0  0  0  0  0  0  0
   -9.7250  -18.7630   -0.3770 H   0  0  0  0  0  0  0  0  0  0  0  0
  -10.7040  -20.6950    1.7850 H   0  0  0  0  0  0  0  0  0  0  0  0
  -10.8280  -20.9470    0.0270 H   0  0  0  0  0  0  0  0  0  0  0  0
  -12.7050  -21.9380    1.0150 H   0  0  0  0  0  0  0  0  0  0  0  0
  -15.0230  -22.7700    1.0090 H   0  0  0  0  0  0  0  0  0  0  0  0
  -18.5140  -19.5570    0.3990 H   0  0  0  0  0  0  0  0  0  0  0  0
  -21.3330  -21.1020    1.4830 H   0  0  0  0  0  0  0  0  0  0  0  0
  -21.2170  -20.8760   -0.2790 H   0  0  0  0  0  0  0  0  0  0  0  0
  -22.1140  -23.2610    0.8390 H   0  0  0  0  0  0  0  0  0  0  0  0
  -21.2400  -23.2160   -0.7110 H   0  0  0  0  0  0  0  0  0  0  0  0
  -19.7330  -24.6420    0.4420 H   0  0  0  0  0  0  0  0  0  0  0  0
  -20.1970  -24.0040    2.0380 H   0  0  0  0  0  0  0  0  0  0  0  0
  -17.0070  -23.4410    1.1450 H   0  0  0  0  0  0  0  0  0  0  0  0
  -16.4690  -18.7640    0.5630 H   0  0  0  0  0  0  0  0  0  0  0  0
  -13.1260  -17.2210    0.9920 H   0  0  0  0  0  0  0  0  0  0  0  0
  -14.8790  -16.9160    1.0360 H   0  0  0  0  0  0  0  0  0  0  0  0
  -14.3620  -18.0230   -1.4710 H   0  0  0  0  0  0  0  0  0  0  0  0
  -13.3900  -14.0030   -1.4030 H   0  0  0  0  0  0  0  0  0  0  0  0
  -14.1530  -14.6910    0.0510 H   0  0  0  0  0  0  0  0  0  0  0  0
  -12.6900  -14.5100    1.8800 H   0  0  0  0  0  0  0  0  0  0  0  0
  -10.4770  -14.8490    2.9180 H   0  0  0  0  0  0  0  0  0  0  0  0
  -11.0720  -15.5900   -1.9350 H   0  0  0  0  0  0  0  0  0  0  0  0
    1.8700  -18.9140   -4.3560 H   0  0  0  0  0  0  0  0  0  0  0  0
    2.3320  -18.1230   -2.8300 H   0  0  0  0  0  0  0  0  0  0  0  0
    0.6130  -18.2840   -3.2640 H   0  0  0  0  0  0  0  0  0  0  0  0
    0.8020  -21.0690   -4.3950 H   0  0  0  0  0  0  0  0  0  0  0  0
   -0.4750  -20.5650   -3.2610 H   0  0  0  0  0  0  0  0  0  0  0  0
    0.5110  -22.0040   -2.9080 H   0  0  0  0  0  0  0  0  0  0  0  0
    3.1610  -20.8600   -3.8190 H   0  0  0  0  0  0  0  0  0  0  0  0
    2.8770  -21.8060   -2.3380 H   0  0  0  0  0  0  0  0  0  0  0  0
    3.6720  -20.2160   -2.2400 H   0  0  0  0  0  0  0  0  0  0  0  0
    8.0180  -17.4470    0.6860 H   0  0  0  0  0  0  0  0  0  0  0  0
    8.6930  -15.1890    1.3890 H   0  0  0  0  0  0  0  0  0  0  0  0
    9.8710  -10.0840    1.1620 H   0  0  0  0  0  0  0  0  0  0  0  0
  1  2  1  0  0  0  0
  1 69  1  0  0  0  0
  1 70  1  0  0  0  0
  1 71  1  0  0  0  0
  2  3  2  0  0  0  0
  2 68  1  0  0  0  0
  3  4  1  0  0  0  0
  3 66  1  0  0  0  0
  4  5  1  0  0  0  0
  4 65  2  0  0  0  0
  5  6  2  0  0  0  0
  5 72  1  0  0  0  0
  6  7  1  0  0  0  0
  6 73  1  0  0  0  0
  7  8  1  0  0  0  0
  7 64  2  0  0  0  0
  8  9  1  0  0  0  0
  8 74  1  0  0  0  0
  8 75  1  0  0  0  0
  9 10  1  0  0  0  0
  9 76  1  0  0  0  0
 10 11  2  0  0  0  0
 10 12  1  0  0  0  0
 12 13  1  0  0  0  0
 12 17  1  0  0  0  0
 12 77  1  0  0  0  0
 13 14  1  0  0  0  0
 13 78  1  0  0  0  0
 13 79  1  0  0  0  0
 14 15  1  0  0  0  0
 14 16  1  0  0  0  0
 14 80  1  0  0  0  0
 15 81  1  0  0  0  0
 16 17  1  0  0  0  0
 16 82  1  0  0  0  0
 16 83  1  0  0  0  0
 17 18  1  0  0  0  0
 18 19  2  0  0  0  0
 18 20  1  0  0  0  0
 20 21  1  0  0  0  0
 20 60  1  0  0  0  0
 20 84  1  0  0  0  0
 21 22  1  0  0  0  0
 21 85  1  0  0  0  0
 22 23  2  0  0  0  0
 22 24  1  0  0  0  0
 24 25  1  0  0  0  0
 24 86  1  0  0  0  0
 24 87  1  0  0  0  0
 25 26  1  0  0  0  0
 25 88  1  0  0  0  0
 25 89  1  0  0  0  0
 26 27  1  0  0  0  0
 27 28  1  0  0  0  0
 27 90  1  0  0  0  0
 27 91  1  0  0  0  0
 28 29  1  0  0  0  0
 28 92  1  0  0  0  0
 28 93  1  0  0  0  0
 29 30  1  0  0  0  0
 30 31  1  0  0  0  0
 30 94  1  0  0  0  0
 30 95  1  0  0  0  0
 31 32  1  0  0  0  0
 31 96  1  0  0  0  0
 31 97  1  0  0  0  0
 32 33  1  0  0  0  0
 33 34  1  0  0  0  0
 33 46  2  0  0  0  0
 34 35  2  0  0  0  0
 34 98  1  0  0  0  0
 35 36  1  0  0  0  0
 35 99  1  0  0  0  0
 36 37  1  0  0  0  0
 36 45  2  0  0  0  0
 37 38  2  0  0  0  0
 37 44  1  0  0  0  0
 38 39  1  0  0  0  0
 38100  1  0  0  0  0
 39 40  1  0  0  0  0
 39 43  2  0  0  0  0
 40 41  1  0  0  0  0
 40101  1  0  0  0  0
 40102  1  0  0  0  0
 41 42  1  0  0  0  0
 41103  1  0  0  0  0
 41104  1  0  0  0  0
 42 43  1  0  0  0  0
 42105  1  0  0  0  0
 42106  1  0  0  0  0
 43 44  1  0  0  0  0
 44107  1  0  0  0  0
 45 46  1  0  0  0  0
 45108  1  0  0  0  0
 46 47  1  0  0  0  0
 47 48  1  0  0  0  0
 47109  1  0  0  0  0
 47110  1  0  0  0  0
 48 49  1  0  0  0  0
 48111  1  0  0  0  0
 49 50  2  0  0  0  0
 49 51  1  0  0  0  0
 51 52  1  0  0  0  0
 51112  1  0  0  0  0
 51113  1  0  0  0  0
 52 53  2  0  0  0  0
 52 59  1  0  0  0  0
 53 54  1  0  0  0  0
 53114  1  0  0  0  0
 54 55  2  0  0  0  0
 54115  1  0  0  0  0
 55 56  1  0  0  0  0
 55 57  1  0  0  0  0
 57 58  1  0  0  0  0
 57 59  2  0  0  0  0
 59116  1  0  0  0  0
 60 61  1  0  0  0  0
 60 62  1  0  0  0  0
 60 63  1  0  0  0  0
 61117  1  0  0  0  0
 61118  1  0  0  0  0
 61119  1  0  0  0  0
 62120  1  0  0  0  0
 62121  1  0  0  0  0
 62122  1  0  0  0  0
 63123  1  0  0  0  0
 63124  1  0  0  0  0
 63125  1  0  0  0  0
 64 65  1  0  0  0  0
 64126  1  0  0  0  0
 65127  1  0  0  0  0
 66 67  1  0  0  0  0
 67 68  2  0  0  0  0
 67128  1  0  0  0  0
M  CHG  1  39   1
M  END
>  <Compound ID>
2294

>  <Uniprot>
P61964

>  <Target>
WDR5

>  <E3 ligase>
VHL

>  <Kd (nM, Protac to Target)>
97

>  <Assay (Protac to Target, Kd)>
ITC

>  <Article DOI>
10.1021/acs.jmedchem.1c00146

>  <Molecular Weight>
989.03601

>  <Exact Mass>
987.35229

>  <XLogP3>
5.6900001

>  <Heavy Atom Count>
68

>  <Ring Count>
7

>  <Hydrogen Bond Acceptor Count>
12

>  <Hydrogen Bond Donor Count>
4

>  <Rotatable Bond Count>
21

>  <Topological Polar Surface Area>
186.24001

>  <Molecular Formula>
C50H59Cl2N7O8S

>  <InChI>
InChI=1S/C50H59Cl2N7O8S/c1-31-46(68-30-55-31)34-10-7-32(8-11-34)26-54-48(63)41-25-37(60)28-59(41)49(64)47(50(2,3)4)57-44(61)15-17-65-18-19-66-20-21-67-42-14-12-35(40-29-58-16-5-6-43(58)56-40)24-36(42)27-53-45(62)23-33-9-13-38(51)39(52)22-33/h7-14,22,24,29-30,37,41,47,60H,5-6,15-21,23,25-28H2,1-4H3,(H,53,62)(H,54,63)(H,57,61)/t37-,41+,47-/m1/s1

>  <InChI Key>
KUOHKJIOVPXKOP-AWWHSMTCSA-N

>  <DC50 (nM)>
1240

>  <Assay (DC50/Dmax)>
Degradation of WDR5-HiBiT in MV4-11 (WDR5-HiBiT) cells after 24 h treatment

$$$$
2295
  MOE2018           3D

135141  0  0  1  0  0  0  0  0999 V2000
   17.7010   13.3480    1.9760 C   0  0  0  0  0  0  0  0  0  0  0  0
   19.1540   13.6900    1.7420 C   0  0  0  0  0  0  0  0  0  0  0  0
   19.6290   14.9290    1.3930 C   0  0  0  0  0  0  0  0  0  0  0  0
   18.9040   16.1780    1.1920 C   0  0  0  0  0  0  0  0  0  0  0  0
   19.1460   16.9650    0.0590 C   0  0  0  0  0  0  0  0  0  0  0  0
   18.4680   18.1630   -0.1340 C   0  0  0  0  0  0  0  0  0  0  0  0
   17.5360   18.6050    0.8020 C   0  0  0  0  0  0  0  0  0  0  0  0
   16.8010   19.9110    0.5890 C   0  0  0  0  0  0  0  0  0  0  0  0
   15.6430   19.5240   -0.1980 N   0  0  0  0  0  0  0  0  0  0  0  0
   14.8910   20.4230   -0.8360 C   0  0  0  0  0  0  0  0  0  0  0  0
   15.2170   21.6090   -0.8610 O   0  0  0  0  0  0  0  0  0  0  0  0
   13.6590   19.9200   -1.6360 C   0  0  2  0  0  0  0  0  0  0  0  0
   13.9260   19.9260   -3.1490 C   0  0  0  0  0  0  0  0  0  0  0  0
   12.6020   20.3520   -3.7750 C   0  0  1  0  0  0  0  0  0  0  0  0
   11.7810   19.2140   -3.9430 O   0  0  0  0  0  0  0  0  0  0  0  0
   12.0170   21.2940   -2.7220 C   0  0  0  0  0  0  0  0  0  0  0  0
   12.4580   20.7390   -1.4490 N   0  0  0  0  0  0  0  0  0  0  0  0
   11.8170   20.7900   -0.2660 C   0  0  0  0  0  0  0  0  0  0  0  0
   12.1390   20.0080    0.6300 O   0  0  0  0  0  0  0  0  0  0  0  0
   10.7010   21.8510   -0.0260 C   0  0  1  0  0  0  0  0  0  0  0  0
    9.4210   21.2230    0.3360 N   0  0  0  0  0  0  0  0  0  0  0  0
    8.4530   20.9870   -0.5430 C   0  0  0  0  0  0  0  0  0  0  0  0
    8.5760   21.2790   -1.7270 O   0  0  0  0  0  0  0  0  0  0  0  0
    7.1840   20.3320   -0.0180 C   0  0  0  0  0  0  0  0  0  0  0  0
    6.0890   20.2590   -1.0800 C   0  0  0  0  0  0  0  0  0  0  0  0
    4.9370   19.6690   -0.5010 O   0  0  0  0  0  0  0  0  0  0  0  0
    3.8580   19.5900   -1.4260 C   0  0  0  0  0  0  0  0  0  0  0  0
    2.6080   19.0080   -0.7590 C   0  0  0  0  0  0  0  0  0  0  0  0
    1.7690   20.0510   -0.2770 O   0  0  0  0  0  0  0  0  0  0  0  0
    0.5710   19.5600    0.3090 C   0  0  0  0  0  0  0  0  0  0  0  0
   -0.2640   20.7340    0.8160 C   0  0  0  0  0  0  0  0  0  0  0  0
   -1.6130   20.3110    0.9730 O   0  0  0  0  0  0  0  0  0  0  0  0
   -2.4550   21.3380    1.4740 C   0  0  0  0  0  0  0  0  0  0  0  0
   -3.8960   20.8250    1.4670 C   0  0  0  0  0  0  0  0  0  0  0  0
   -4.7200   21.8440    2.1120 O   0  0  0  0  0  0  0  0  0  0  0  0
   -4.8780   23.1040    1.5860 C   0  0  0  0  0  0  0  0  0  0  0  0
   -4.2670   24.1540    2.2640 C   0  0  0  0  0  0  0  0  0  0  0  0
   -4.3700   25.4480    1.7690 C   0  0  0  0  0  0  0  0  0  0  0  0
   -5.0820   25.7120    0.5900 C   0  0  0  0  0  0  0  0  0  0  0  0
   -5.2120   27.0700    0.0610 C   0  0  0  0  0  0  0  0  0  0  0  0
   -4.4860   28.1650    0.4320 C   0  0  0  0  0  0  0  0  0  0  0  0
   -4.9480   29.1740   -0.3130 N   0  3  0  0  0  0  0  0  0  0  0  0
   -4.6840   30.5810   -0.4700 C   0  0  0  0  0  0  0  0  0  0  0  0
   -5.3770   30.8550   -1.8340 C   0  0  0  0  0  0  0  0  0  0  0  0
   -6.4880   29.7840   -1.9590 C   0  0  0  0  0  0  0  0  0  0  0  0
   -5.9150   28.7040   -1.0940 C   0  0  0  0  0  0  0  0  0  0  0  0
   -6.1190   27.4390   -0.9120 N   0  0  0  0  0  0  0  0  0  0  0  0
   -5.6900   24.6340   -0.0730 C   0  0  0  0  0  0  0  0  0  0  0  0
   -5.6200   23.3310    0.4230 C   0  0  0  0  0  0  0  0  0  0  0  0
   -6.3480   22.2040   -0.2910 C   0  0  0  0  0  0  0  0  0  0  0  0
   -7.7030   22.7010   -0.4720 N   0  0  0  0  0  0  0  0  0  0  0  0
   -8.5890   22.1090   -1.2690 C   0  0  0  0  0  0  0  0  0  0  0  0
   -8.3040   21.0800   -1.8710 O   0  0  0  0  0  0  0  0  0  0  0  0
   -9.9560   22.7520   -1.3830 C   0  0  0  0  0  0  0  0  0  0  0  0
  -10.6330   22.6040   -0.0280 C   0  0  0  0  0  0  0  0  0  0  0  0
  -10.8650   23.7210    0.7750 C   0  0  0  0  0  0  0  0  0  0  0  0
  -11.4770   23.5790    2.0180 C   0  0  0  0  0  0  0  0  0  0  0  0
  -11.8650   22.3200    2.4700 C   0  0  0  0  0  0  0  0  0  0  0  0
  -12.6270   22.1790    4.0210 Cl  0  0  0  0  0  0  0  0  0  0  0  0
  -11.6340   21.1910    1.6660 C   0  0  0  0  0  0  0  0  0  0  0  0
  -12.0990   19.6050    2.1890 Cl  0  0  0  0  0  0  0  0  0  0  0  0
  -11.0190   21.3410    0.4230 C   0  0  0  0  0  0  0  0  0  0  0  0
   11.0860   22.9620    1.0040 C   0  0  0  0  0  0  0  0  0  0  0  0
   11.1950   22.4590    2.4580 C   0  0  0  0  0  0  0  0  0  0  0  0
   10.0310   24.0890    0.9820 C   0  0  0  0  0  0  0  0  0  0  0  0
   12.4340   23.6080    0.6240 C   0  0  0  0  0  0  0  0  0  0  0  0
   17.2840   17.8260    1.9310 C   0  0  0  0  0  0  0  0  0  0  0  0
   17.9630   16.6290    2.1250 C   0  0  0  0  0  0  0  0  0  0  0  0
   21.3320   14.8590    1.2040 S   0  0  0  0  0  0  0  0  0  0  0  0
   21.2820   13.1940    1.6240 C   0  0  0  0  0  0  0  0  0  0  0  0
   20.0960   12.7210    1.8770 N   0  0  0  0  0  0  0  0  0  0  0  0
   17.0900   14.2380    1.8260 H   0  0  0  0  0  0  0  0  0  0  0  0
   17.5720   12.9870    2.9960 H   0  0  0  0  0  0  0  0  0  0  0  0
   17.3930   12.5730    1.2750 H   0  0  0  0  0  0  0  0  0  0  0  0
   19.8680   16.6370   -0.6740 H   0  0  0  0  0  0  0  0  0  0  0  0
   18.6650   18.7550   -1.0160 H   0  0  0  0  0  0  0  0  0  0  0  0
   17.4220   20.6230    0.0450 H   0  0  0  0  0  0  0  0  0  0  0  0
   16.4970   20.3470    1.5410 H   0  0  0  0  0  0  0  0  0  0  0  0
   15.4000   18.5460   -0.2640 H   0  0  0  0  0  0  0  0  0  0  0  0
   13.4910   18.9150   -1.2480 H   0  0  0  0  0  0  0  0  0  0  0  0
   14.2110   18.9320   -3.4930 H   0  0  0  0  0  0  0  0  0  0  0  0
   14.7150   20.6360   -3.3970 H   0  0  0  0  0  0  0  0  0  0  0  0
   12.6970   20.8200   -4.7550 H   0  0  0  0  0  0  0  0  0  0  0  0
   11.6900   18.7930   -3.0850 H   0  0  0  0  0  0  0  0  0  0  0  0
   10.9290   21.3080   -2.7800 H   0  0  0  0  0  0  0  0  0  0  0  0
   12.4010   22.3060   -2.8550 H   0  0  0  0  0  0  0  0  0  0  0  0
   10.5830   22.3570   -0.9840 H   0  0  0  0  0  0  0  0  0  0  0  0
    9.2710   20.9580    1.2990 H   0  0  0  0  0  0  0  0  0  0  0  0
    7.4220   19.3200    0.3110 H   0  0  0  0  0  0  0  0  0  0  0  0
    6.8140   20.9120    0.8280 H   0  0  0  0  0  0  0  0  0  0  0  0
    6.4300   19.6520   -1.9190 H   0  0  0  0  0  0  0  0  0  0  0  0
    5.8500   21.2630   -1.4310 H   0  0  0  0  0  0  0  0  0  0  0  0
    3.6320   20.5900   -1.7970 H   0  0  0  0  0  0  0  0  0  0  0  0
    4.1480   18.9500   -2.2590 H   0  0  0  0  0  0  0  0  0  0  0  0
    2.9090   18.3750    0.0760 H   0  0  0  0  0  0  0  0  0  0  0  0
    2.0570   18.4120   -1.4870 H   0  0  0  0  0  0  0  0  0  0  0  0
    0.0020   19.0050   -0.4370 H   0  0  0  0  0  0  0  0  0  0  0  0
    0.8170   18.9020    1.1420 H   0  0  0  0  0  0  0  0  0  0  0  0
   -0.2190   21.5520    0.0970 H   0  0  0  0  0  0  0  0  0  0  0  0
    0.1270   21.0720    1.7760 H   0  0  0  0  0  0  0  0  0  0  0  0
   -2.1600   21.5930    2.4920 H   0  0  0  0  0  0  0  0  0  0  0  0
   -2.3750   22.2210    0.8410 H   0  0  0  0  0  0  0  0  0  0  0  0
   -3.9610   19.8870    2.0190 H   0  0  0  0  0  0  0  0  0  0  0  0
   -4.2310   20.6670    0.4420 H   0  0  0  0  0  0  0  0  0  0  0  0
   -3.7140   23.9640    3.1720 H   0  0  0  0  0  0  0  0  0  0  0  0
   -3.8960   26.2610    2.2990 H   0  0  0  0  0  0  0  0  0  0  0  0
   -3.7020   28.2070    1.1730 H   0  0  0  0  0  0  0  0  0  0  0  0
   -5.1330   31.1660    0.3330 H   0  0  0  0  0  0  0  0  0  0  0  0
   -3.6140   30.7860   -0.5150 H   0  0  0  0  0  0  0  0  0  0  0  0
   -5.8100   31.8550   -1.8470 H   0  0  0  0  0  0  0  0  0  0  0  0
   -4.6620   30.7580   -2.6510 H   0  0  0  0  0  0  0  0  0  0  0  0
   -6.6140   29.4520   -2.9890 H   0  0  0  0  0  0  0  0  0  0  0  0
   -7.4420   30.1450   -1.5750 H   0  0  0  0  0  0  0  0  0  0  0  0
   -6.7940   26.8510   -1.3790 H   0  0  0  0  0  0  0  0  0  0  0  0
   -6.2270   24.8180   -0.9920 H   0  0  0  0  0  0  0  0  0  0  0  0
   -6.3480   21.2990    0.3170 H   0  0  0  0  0  0  0  0  0  0  0  0
   -5.8830   21.9950   -1.2540 H   0  0  0  0  0  0  0  0  0  0  0  0
   -7.9840   23.5320    0.0290 H   0  0  0  0  0  0  0  0  0  0  0  0
   -9.8530   23.8070   -1.6370 H   0  0  0  0  0  0  0  0  0  0  0  0
  -10.5430   22.2490   -2.1510 H   0  0  0  0  0  0  0  0  0  0  0  0
  -10.5690   24.7010    0.4310 H   0  0  0  0  0  0  0  0  0  0  0  0
  -11.6510   24.4490    2.6340 H   0  0  0  0  0  0  0  0  0  0  0  0
  -10.8400   20.4730   -0.1950 H   0  0  0  0  0  0  0  0  0  0  0  0
   11.4650   23.2890    3.1100 H   0  0  0  0  0  0  0  0  0  0  0  0
   11.9600   21.6850    2.5180 H   0  0  0  0  0  0  0  0  0  0  0  0
   10.2360   22.0470    2.7730 H   0  0  0  0  0  0  0  0  0  0  0  0
   10.3070   24.8590    1.7030 H   0  0  0  0  0  0  0  0  0  0  0  0
    9.0560   23.6790    1.2440 H   0  0  0  0  0  0  0  0  0  0  0  0
    9.9860   24.5250   -0.0160 H   0  0  0  0  0  0  0  0  0  0  0  0
   12.6860   24.3790    1.3520 H   0  0  0  0  0  0  0  0  0  0  0  0
   12.3560   24.0560   -0.3670 H   0  0  0  0  0  0  0  0  0  0  0  0
   13.2130   22.8460    0.6180 H   0  0  0  0  0  0  0  0  0  0  0  0
   16.5570   18.1550    2.6590 H   0  0  0  0  0  0  0  0  0  0  0  0
   17.7620   16.0390    3.0070 H   0  0  0  0  0  0  0  0  0  0  0  0
   22.1710   12.5830    1.6750 H   0  0  0  0  0  0  0  0  0  0  0  0
  1  2  1  0  0  0  0
  1 72  1  0  0  0  0
  1 73  1  0  0  0  0
  1 74  1  0  0  0  0
  2  3  2  0  0  0  0
  2 71  1  0  0  0  0
  3  4  1  0  0  0  0
  3 69  1  0  0  0  0
  4  5  1  0  0  0  0
  4 68  2  0  0  0  0
  5  6  2  0  0  0  0
  5 75  1  0  0  0  0
  6  7  1  0  0  0  0
  6 76  1  0  0  0  0
  7  8  1  0  0  0  0
  7 67  2  0  0  0  0
  8  9  1  0  0  0  0
  8 77  1  0  0  0  0
  8 78  1  0  0  0  0
  9 10  1  0  0  0  0
  9 79  1  0  0  0  0
 10 11  2  0  0  0  0
 10 12  1  0  0  0  0
 12 13  1  0  0  0  0
 12 17  1  0  0  0  0
 12 80  1  0  0  0  0
 13 14  1  0  0  0  0
 13 81  1  0  0  0  0
 13 82  1  0  0  0  0
 14 15  1  0  0  0  0
 14 16  1  0  0  0  0
 14 83  1  0  0  0  0
 15 84  1  0  0  0  0
 16 17  1  0  0  0  0
 16 85  1  0  0  0  0
 16 86  1  0  0  0  0
 17 18  1  0  0  0  0
 18 19  2  0  0  0  0
 18 20  1  0  0  0  0
 20 21  1  0  0  0  0
 20 63  1  0  0  0  0
 20 87  1  0  0  0  0
 21 22  1  0  0  0  0
 21 88  1  0  0  0  0
 22 23  2  0  0  0  0
 22 24  1  0  0  0  0
 24 25  1  0  0  0  0
 24 89  1  0  0  0  0
 24 90  1  0  0  0  0
 25 26  1  0  0  0  0
 25 91  1  0  0  0  0
 25 92  1  0  0  0  0
 26 27  1  0  0  0  0
 27 28  1  0  0  0  0
 27 93  1  0  0  0  0
 27 94  1  0  0  0  0
 28 29  1  0  0  0  0
 28 95  1  0  0  0  0
 28 96  1  0  0  0  0
 29 30  1  0  0  0  0
 30 31  1  0  0  0  0
 30 97  1  0  0  0  0
 30 98  1  0  0  0  0
 31 32  1  0  0  0  0
 31 99  1  0  0  0  0
 31100  1  0  0  0  0
 32 33  1  0  0  0  0
 33 34  1  0  0  0  0
 33101  1  0  0  0  0
 33102  1  0  0  0  0
 34 35  1  0  0  0  0
 34103  1  0  0  0  0
 34104  1  0  0  0  0
 35 36  1  0  0  0  0
 36 37  1  0  0  0  0
 36 49  2  0  0  0  0
 37 38  2  0  0  0  0
 37105  1  0  0  0  0
 38 39  1  0  0  0  0
 38106  1  0  0  0  0
 39 40  1  0  0  0  0
 39 48  2  0  0  0  0
 40 41  2  0  0  0  0
 40 47  1  0  0  0  0
 41 42  1  0  0  0  0
 41107  1  0  0  0  0
 42 43  1  0  0  0  0
 42 46  2  0  0  0  0
 43 44  1  0  0  0  0
 43108  1  0  0  0  0
 43109  1  0  0  0  0
 44 45  1  0  0  0  0
 44110  1  0  0  0  0
 44111  1  0  0  0  0
 45 46  1  0  0  0  0
 45112  1  0  0  0  0
 45113  1  0  0  0  0
 46 47  1  0  0  0  0
 47114  1  0  0  0  0
 48 49  1  0  0  0  0
 48115  1  0  0  0  0
 49 50  1  0  0  0  0
 50 51  1  0  0  0  0
 50116  1  0  0  0  0
 50117  1  0  0  0  0
 51 52  1  0  0  0  0
 51118  1  0  0  0  0
 52 53  2  0  0  0  0
 52 54  1  0  0  0  0
 54 55  1  0  0  0  0
 54119  1  0  0  0  0
 54120  1  0  0  0  0
 55 56  2  0  0  0  0
 55 62  1  0  0  0  0
 56 57  1  0  0  0  0
 56121  1  0  0  0  0
 57 58  2  0  0  0  0
 57122  1  0  0  0  0
 58 59  1  0  0  0  0
 58 60  1  0  0  0  0
 60 61  1  0  0  0  0
 60 62  2  0  0  0  0
 62123  1  0  0  0  0
 63 64  1  0  0  0  0
 63 65  1  0  0  0  0
 63 66  1  0  0  0  0
 64124  1  0  0  0  0
 64125  1  0  0  0  0
 64126  1  0  0  0  0
 65127  1  0  0  0  0
 65128  1  0  0  0  0
 65129  1  0  0  0  0
 66130  1  0  0  0  0
 66131  1  0  0  0  0
 66132  1  0  0  0  0
 67 68  1  0  0  0  0
 67133  1  0  0  0  0
 68134  1  0  0  0  0
 69 70  1  0  0  0  0
 70 71  2  0  0  0  0
 70135  1  0  0  0  0
M  CHG  1  42   1
M  END
>  <Compound ID>
2295

>  <Uniprot>
P61964

>  <Target>
WDR5

>  <E3 ligase>
VHL

>  <Dmax (%)>
N.D.

>  <Article DOI>
10.1021/acs.jmedchem.1c00146

>  <Molecular Weight>
1033.089

>  <Exact Mass>
1031.3785

>  <XLogP3>
5.5500002

>  <Heavy Atom Count>
71

>  <Ring Count>
7

>  <Hydrogen Bond Acceptor Count>
13

>  <Hydrogen Bond Donor Count>
4

>  <Rotatable Bond Count>
24

>  <Topological Polar Surface Area>
195.47

>  <Molecular Formula>
C52H63Cl2N7O9S

>  <InChI>
InChI=1S/C52H63Cl2N7O9S/c1-33-48(71-32-57-33)36-10-7-34(8-11-36)28-56-50(65)43-27-39(62)30-61(43)51(66)49(52(2,3)4)59-46(63)15-17-67-18-19-68-20-21-69-22-23-70-44-14-12-37(42-31-60-16-5-6-45(60)58-42)26-38(44)29-55-47(64)25-35-9-13-40(53)41(54)24-35/h7-14,24,26,31-32,39,43,49,62H,5-6,15-23,25,27-30H2,1-4H3,(H,55,64)(H,56,65)(H,59,63)/t39-,43+,49-/m1/s1

>  <InChI Key>
LDNZZSMPSRDFMJ-SHTJZPIOSA-N

$$$$
2296
  MOE2018           3D

142148  0  0  1  0  0  0  0  0999 V2000
   22.9430  -16.1880   -3.1550 C   0  0  0  0  0  0  0  0  0  0  0  0
   23.1270  -15.9070   -1.6820 C   0  0  0  0  0  0  0  0  0  0  0  0
   22.9870  -16.8330   -0.6790 C   0  0  0  0  0  0  0  0  0  0  0  0
   22.6210  -18.2410   -0.7650 C   0  0  0  0  0  0  0  0  0  0  0  0
   23.3790  -19.2150   -0.1060 C   0  0  0  0  0  0  0  0  0  0  0  0
   23.0360  -20.5600   -0.1880 C   0  0  0  0  0  0  0  0  0  0  0  0
   21.9260  -20.9610   -0.9290 C   0  0  0  0  0  0  0  0  0  0  0  0
   21.5490  -22.4250   -1.0110 C   0  0  0  0  0  0  0  0  0  0  0  0
   20.6660  -22.6090    0.1270 N   0  0  0  0  0  0  0  0  0  0  0  0
   20.3010  -23.8200    0.5500 C   0  0  0  0  0  0  0  0  0  0  0  0
   20.7740  -24.8340    0.0380 O   0  0  0  0  0  0  0  0  0  0  0  0
   19.3290  -23.9200    1.7570 C   0  0  2  0  0  0  0  0  0  0  0  0
   19.9840  -24.6030    2.9680 C   0  0  0  0  0  0  0  0  0  0  0  0
   18.8950  -25.4960    3.5560 C   0  0  1  0  0  0  0  0  0  0  0  0
   18.1160  -24.7470    4.4660 O   0  0  0  0  0  0  0  0  0  0  0  0
   18.0680  -25.8800    2.3290 C   0  0  0  0  0  0  0  0  0  0  0  0
   18.1240  -24.7050    1.4690 N   0  0  0  0  0  0  0  0  0  0  0  0
   17.1990  -24.2760    0.5880 C   0  0  0  0  0  0  0  0  0  0  0  0
   17.2800  -23.1310    0.1370 O   0  0  0  0  0  0  0  0  0  0  0  0
   16.0410  -25.2110    0.1270 C   0  0  1  0  0  0  0  0  0  0  0  0
   14.7740  -24.4630    0.0490 N   0  0  0  0  0  0  0  0  0  0  0  0
   13.6190  -24.8970    0.5430 C   0  0  0  0  0  0  0  0  0  0  0  0
   13.5290  -25.9710    1.1260 O   0  0  0  0  0  0  0  0  0  0  0  0
   12.4050  -23.9990    0.3530 C   0  0  0  0  0  0  0  0  0  0  0  0
   11.0960  -24.7260    0.6590 C   0  0  0  0  0  0  0  0  0  0  0  0
   10.0160  -23.8400    0.4090 O   0  0  0  0  0  0  0  0  0  0  0  0
    8.7570  -24.4830    0.5670 C   0  0  0  0  0  0  0  0  0  0  0  0
    7.6280  -23.4870    0.3100 C   0  0  0  0  0  0  0  0  0  0  0  0
    6.4120  -24.2080    0.1610 O   0  0  0  0  0  0  0  0  0  0  0  0
    5.2830  -23.3620   -0.0090 C   0  0  0  0  0  0  0  0  0  0  0  0
    4.0500  -24.2340   -0.2360 C   0  0  0  0  0  0  0  0  0  0  0  0
    2.8710  -23.4530   -0.0910 O   0  0  0  0  0  0  0  0  0  0  0  0
    1.6970  -24.2210   -0.3190 C   0  0  0  0  0  0  0  0  0  0  0  0
    0.4570  -23.3750   -0.0410 C   0  0  0  0  0  0  0  0  0  0  0  0
   -0.6830  -24.2240   -0.0850 O   0  0  0  0  0  0  0  0  0  0  0  0
   -1.8830  -23.5560    0.2740 C   0  0  0  0  0  0  0  0  0  0  0  0
   -3.0350  -24.5470    0.1430 C   0  0  0  0  0  0  0  0  0  0  0  0
   -4.2170  -23.8340    0.5800 O   0  0  0  0  0  0  0  0  0  0  0  0
   -5.4750  -24.3980    0.6740 C   0  0  0  0  0  0  0  0  0  0  0  0
   -5.7200  -25.6920    0.2150 C   0  0  0  0  0  0  0  0  0  0  0  0
   -6.9990  -26.2240    0.3140 C   0  0  0  0  0  0  0  0  0  0  0  0
   -8.0530  -25.4830    0.8670 C   0  0  0  0  0  0  0  0  0  0  0  0
   -9.3960  -26.0600    0.9600 C   0  0  0  0  0  0  0  0  0  0  0  0
  -10.4900  -25.4980    1.5540 C   0  0  0  0  0  0  0  0  0  0  0  0
  -11.4810  -26.3810    1.3950 N   0  3  0  0  0  0  0  0  0  0  0  0
  -12.8770  -26.4770    1.7350 C   0  0  0  0  0  0  0  0  0  0  0  0
  -13.1190  -28.0000    1.5400 C   0  0  0  0  0  0  0  0  0  0  0  0
  -12.0610  -28.4610    0.5060 C   0  0  0  0  0  0  0  0  0  0  0  0
  -11.0020  -27.4260    0.7310 C   0  0  0  0  0  0  0  0  0  0  0  0
   -9.7490  -27.2890    0.4420 N   0  0  0  0  0  0  0  0  0  0  0  0
   -7.7800  -24.1820    1.3220 C   0  0  0  0  0  0  0  0  0  0  0  0
   -6.5020  -23.6340    1.2350 C   0  0  0  0  0  0  0  0  0  0  0  0
   -6.2460  -22.2240    1.7250 C   0  0  0  0  0  0  0  0  0  0  0  0
   -6.3040  -21.4390    0.5060 N   0  0  0  0  0  0  0  0  0  0  0  0
   -6.1530  -20.1170    0.4930 C   0  0  0  0  0  0  0  0  0  0  0  0
   -6.0690  -19.4830    1.5380 O   0  0  0  0  0  0  0  0  0  0  0  0
   -6.0410  -19.4500   -0.8620 C   0  0  0  0  0  0  0  0  0  0  0  0
   -4.7940  -20.0170   -1.5270 C   0  0  0  0  0  0  0  0  0  0  0  0
   -4.9030  -20.8700   -2.6260 C   0  0  0  0  0  0  0  0  0  0  0  0
   -3.7600  -21.4110   -3.2120 C   0  0  0  0  0  0  0  0  0  0  0  0
   -2.4990  -21.1040   -2.7050 C   0  0  0  0  0  0  0  0  0  0  0  0
   -1.0990  -21.8110   -3.4430 Cl  0  0  0  0  0  0  0  0  0  0  0  0
   -2.3840  -20.2410   -1.6030 C   0  0  0  0  0  0  0  0  0  0  0  0
   -0.8360  -19.8410   -0.9350 Cl  0  0  0  0  0  0  0  0  0  0  0  0
   -3.5310  -19.7040   -1.0220 C   0  0  0  0  0  0  0  0  0  0  0  0
   16.3460  -25.9360   -1.2270 C   0  0  0  0  0  0  0  0  0  0  0  0
   15.2210  -26.9270   -1.5920 C   0  0  0  0  0  0  0  0  0  0  0  0
   16.5090  -24.9610   -2.4120 C   0  0  0  0  0  0  0  0  0  0  0  0
   17.6390  -26.7720   -1.1310 C   0  0  0  0  0  0  0  0  0  0  0  0
   21.1570  -19.9960   -1.5790 C   0  0  0  0  0  0  0  0  0  0  0  0
   21.5000  -18.6520   -1.4960 C   0  0  0  0  0  0  0  0  0  0  0  0
   23.3110  -16.0950    0.8350 S   0  0  0  0  0  0  0  0  0  0  0  0
   23.5860  -14.6080    0.0180 C   0  0  0  0  0  0  0  0  0  0  0  0
   23.4570  -14.6540   -1.2770 N   0  0  0  0  0  0  0  0  0  0  0  0
   22.6830  -17.2370   -3.2950 H   0  0  0  0  0  0  0  0  0  0  0  0
   23.8700  -15.9700   -3.6850 H   0  0  0  0  0  0  0  0  0  0  0  0
   22.1440  -15.5600   -3.5480 H   0  0  0  0  0  0  0  0  0  0  0  0
   24.2410  -18.9190    0.4730 H   0  0  0  0  0  0  0  0  0  0  0  0
   23.6340  -21.2980    0.3260 H   0  0  0  0  0  0  0  0  0  0  0  0
   22.4310  -23.0600   -0.9270 H   0  0  0  0  0  0  0  0  0  0  0  0
   21.0320  -22.6430   -1.9450 H   0  0  0  0  0  0  0  0  0  0  0  0
   20.3180  -21.7950    0.6130 H   0  0  0  0  0  0  0  0  0  0  0  0
   19.0680  -22.8830    1.9670 H   0  0  0  0  0  0  0  0  0  0  0  0
   20.3060  -23.8610    3.6980 H   0  0  0  0  0  0  0  0  0  0  0  0
   20.8400  -25.2000    2.6540 H   0  0  0  0  0  0  0  0  0  0  0  0
   19.2740  -26.3610    4.1000 H   0  0  0  0  0  0  0  0  0  0  0  0
   17.7770  -23.9820    3.9960 H   0  0  0  0  0  0  0  0  0  0  0  0
   17.0390  -26.1020    2.6120 H   0  0  0  0  0  0  0  0  0  0  0  0
   18.5010  -26.7450    1.8280 H   0  0  0  0  0  0  0  0  0  0  0  0
   15.9460  -25.9930    0.8810 H   0  0  0  0  0  0  0  0  0  0  0  0
   14.7840  -23.5630   -0.4090 H   0  0  0  0  0  0  0  0  0  0  0  0
   12.4950  -23.1420    1.0200 H   0  0  0  0  0  0  0  0  0  0  0  0
   12.3820  -23.6540   -0.6810 H   0  0  0  0  0  0  0  0  0  0  0  0
   11.0830  -25.0350    1.7040 H   0  0  0  0  0  0  0  0  0  0  0  0
   11.0060  -25.6040    0.0200 H   0  0  0  0  0  0  0  0  0  0  0  0
    8.6800  -25.3070   -0.1430 H   0  0  0  0  0  0  0  0  0  0  0  0
    8.6740  -24.8690    1.5830 H   0  0  0  0  0  0  0  0  0  0  0  0
    7.8350  -22.9240   -0.6000 H   0  0  0  0  0  0  0  0  0  0  0  0
    7.5460  -22.7990    1.1520 H   0  0  0  0  0  0  0  0  0  0  0  0
    5.1430  -22.7530    0.8840 H   0  0  0  0  0  0  0  0  0  0  0  0
    5.4370  -22.7130   -0.8710 H   0  0  0  0  0  0  0  0  0  0  0  0
    4.0400  -25.0430    0.4950 H   0  0  0  0  0  0  0  0  0  0  0  0
    4.0840  -24.6530   -1.2420 H   0  0  0  0  0  0  0  0  0  0  0  0
    1.6800  -24.5560   -1.3560 H   0  0  0  0  0  0  0  0  0  0  0  0
    1.6980  -25.0870    0.3420 H   0  0  0  0  0  0  0  0  0  0  0  0
    0.3650  -22.5960   -0.7980 H   0  0  0  0  0  0  0  0  0  0  0  0
    0.5370  -22.9170    0.9450 H   0  0  0  0  0  0  0  0  0  0  0  0
   -1.8150  -23.2020    1.3030 H   0  0  0  0  0  0  0  0  0  0  0  0
   -2.0470  -22.7090   -0.3920 H   0  0  0  0  0  0  0  0  0  0  0  0
   -2.8610  -25.4180    0.7750 H   0  0  0  0  0  0  0  0  0  0  0  0
   -3.1450  -24.8670   -0.8930 H   0  0  0  0  0  0  0  0  0  0  0  0
   -4.9200  -26.2770   -0.2150 H   0  0  0  0  0  0  0  0  0  0  0  0
   -7.1850  -27.2270   -0.0410 H   0  0  0  0  0  0  0  0  0  0  0  0
  -10.5430  -24.5400    2.0490 H   0  0  0  0  0  0  0  0  0  0  0  0
  -13.0610  -26.1700    2.7640 H   0  0  0  0  0  0  0  0  0  0  0  0
  -13.4960  -25.8830    1.0620 H   0  0  0  0  0  0  0  0  0  0  0  0
  -12.9860  -28.5300    2.4830 H   0  0  0  0  0  0  0  0  0  0  0  0
  -14.1250  -28.1800    1.1610 H   0  0  0  0  0  0  0  0  0  0  0  0
  -12.4490  -28.4260   -0.5120 H   0  0  0  0  0  0  0  0  0  0  0  0
  -11.6960  -29.4650    0.7220 H   0  0  0  0  0  0  0  0  0  0  0  0
   -9.1580  -27.9400   -0.0550 H   0  0  0  0  0  0  0  0  0  0  0  0
   -8.5790  -23.5940    1.7490 H   0  0  0  0  0  0  0  0  0  0  0  0
   -5.2660  -22.1450    2.1960 H   0  0  0  0  0  0  0  0  0  0  0  0
   -7.0150  -21.9090    2.4310 H   0  0  0  0  0  0  0  0  0  0  0  0
   -6.4660  -21.9160   -0.3690 H   0  0  0  0  0  0  0  0  0  0  0  0
   -6.9220  -19.6720   -1.4640 H   0  0  0  0  0  0  0  0  0  0  0  0
   -5.9450  -18.3710   -0.7430 H   0  0  0  0  0  0  0  0  0  0  0  0
   -5.8770  -21.1120   -3.0240 H   0  0  0  0  0  0  0  0  0  0  0  0
   -3.8520  -22.0710   -4.0620 H   0  0  0  0  0  0  0  0  0  0  0  0
   -3.4420  -19.0410   -0.1740 H   0  0  0  0  0  0  0  0  0  0  0  0
   15.4600  -27.4160   -2.5370 H   0  0  0  0  0  0  0  0  0  0  0  0
   14.2790  -26.3870   -1.6900 H   0  0  0  0  0  0  0  0  0  0  0  0
   15.1300  -27.6780   -0.8070 H   0  0  0  0  0  0  0  0  0  0  0  0
   16.7190  -25.5250   -3.3210 H   0  0  0  0  0  0  0  0  0  0  0  0
   17.3340  -24.2780   -2.2100 H   0  0  0  0  0  0  0  0  0  0  0  0
   15.5890  -24.3910   -2.5430 H   0  0  0  0  0  0  0  0  0  0  0  0
   17.8250  -27.2640   -2.0860 H   0  0  0  0  0  0  0  0  0  0  0  0
   17.5280  -27.5240   -0.3500 H   0  0  0  0  0  0  0  0  0  0  0  0
   18.4770  -26.1180   -0.8890 H   0  0  0  0  0  0  0  0  0  0  0  0
   20.2900  -20.2950   -2.1500 H   0  0  0  0  0  0  0  0  0  0  0  0
   20.8940  -17.9150   -2.0020 H   0  0  0  0  0  0  0  0  0  0  0  0
   23.8470  -13.7000    0.5410 H   0  0  0  0  0  0  0  0  0  0  0  0
  1  2  1  0  0  0  0
  1 75  1  0  0  0  0
  1 76  1  0  0  0  0
  1 77  1  0  0  0  0
  2  3  2  0  0  0  0
  2 74  1  0  0  0  0
  3  4  1  0  0  0  0
  3 72  1  0  0  0  0
  4  5  1  0  0  0  0
  4 71  2  0  0  0  0
  5  6  2  0  0  0  0
  5 78  1  0  0  0  0
  6  7  1  0  0  0  0
  6 79  1  0  0  0  0
  7  8  1  0  0  0  0
  7 70  2  0  0  0  0
  8  9  1  0  0  0  0
  8 80  1  0  0  0  0
  8 81  1  0  0  0  0
  9 10  1  0  0  0  0
  9 82  1  0  0  0  0
 10 11  2  0  0  0  0
 10 12  1  0  0  0  0
 12 13  1  0  0  0  0
 12 17  1  0  0  0  0
 12 83  1  0  0  0  0
 13 14  1  0  0  0  0
 13 84  1  0  0  0  0
 13 85  1  0  0  0  0
 14 15  1  0  0  0  0
 14 16  1  0  0  0  0
 14 86  1  0  0  0  0
 15 87  1  0  0  0  0
 16 17  1  0  0  0  0
 16 88  1  0  0  0  0
 16 89  1  0  0  0  0
 17 18  1  0  0  0  0
 18 19  2  0  0  0  0
 18 20  1  0  0  0  0
 20 21  1  0  0  0  0
 20 66  1  0  0  0  0
 20 90  1  0  0  0  0
 21 22  1  0  0  0  0
 21 91  1  0  0  0  0
 22 23  2  0  0  0  0
 22 24  1  0  0  0  0
 24 25  1  0  0  0  0
 24 92  1  0  0  0  0
 24 93  1  0  0  0  0
 25 26  1  0  0  0  0
 25 94  1  0  0  0  0
 25 95  1  0  0  0  0
 26 27  1  0  0  0  0
 27 28  1  0  0  0  0
 27 96  1  0  0  0  0
 27 97  1  0  0  0  0
 28 29  1  0  0  0  0
 28 98  1  0  0  0  0
 28 99  1  0  0  0  0
 29 30  1  0  0  0  0
 30 31  1  0  0  0  0
 30100  1  0  0  0  0
 30101  1  0  0  0  0
 31 32  1  0  0  0  0
 31102  1  0  0  0  0
 31103  1  0  0  0  0
 32 33  1  0  0  0  0
 33 34  1  0  0  0  0
 33104  1  0  0  0  0
 33105  1  0  0  0  0
 34 35  1  0  0  0  0
 34106  1  0  0  0  0
 34107  1  0  0  0  0
 35 36  1  0  0  0  0
 36 37  1  0  0  0  0
 36108  1  0  0  0  0
 36109  1  0  0  0  0
 37 38  1  0  0  0  0
 37110  1  0  0  0  0
 37111  1  0  0  0  0
 38 39  1  0  0  0  0
 39 40  1  0  0  0  0
 39 52  2  0  0  0  0
 40 41  2  0  0  0  0
 40112  1  0  0  0  0
 41 42  1  0  0  0  0
 41113  1  0  0  0  0
 42 43  1  0  0  0  0
 42 51  2  0  0  0  0
 43 44  2  0  0  0  0
 43 50  1  0  0  0  0
 44 45  1  0  0  0  0
 44114  1  0  0  0  0
 45 46  1  0  0  0  0
 45 49  2  0  0  0  0
 46 47  1  0  0  0  0
 46115  1  0  0  0  0
 46116  1  0  0  0  0
 47 48  1  0  0  0  0
 47117  1  0  0  0  0
 47118  1  0  0  0  0
 48 49  1  0  0  0  0
 48119  1  0  0  0  0
 48120  1  0  0  0  0
 49 50  1  0  0  0  0
 50121  1  0  0  0  0
 51 52  1  0  0  0  0
 51122  1  0  0  0  0
 52 53  1  0  0  0  0
 53 54  1  0  0  0  0
 53123  1  0  0  0  0
 53124  1  0  0  0  0
 54 55  1  0  0  0  0
 54125  1  0  0  0  0
 55 56  2  0  0  0  0
 55 57  1  0  0  0  0
 57 58  1  0  0  0  0
 57126  1  0  0  0  0
 57127  1  0  0  0  0
 58 59  2  0  0  0  0
 58 65  1  0  0  0  0
 59 60  1  0  0  0  0
 59128  1  0  0  0  0
 60 61  2  0  0  0  0
 60129  1  0  0  0  0
 61 62  1  0  0  0  0
 61 63  1  0  0  0  0
 63 64  1  0  0  0  0
 63 65  2  0  0  0  0
 65130  1  0  0  0  0
 66 67  1  0  0  0  0
 66 68  1  0  0  0  0
 66 69  1  0  0  0  0
 67131  1  0  0  0  0
 67132  1  0  0  0  0
 67133  1  0  0  0  0
 68134  1  0  0  0  0
 68135  1  0  0  0  0
 68136  1  0  0  0  0
 69137  1  0  0  0  0
 69138  1  0  0  0  0
 69139  1  0  0  0  0
 70 71  1  0  0  0  0
 70140  1  0  0  0  0
 71141  1  0  0  0  0
 72 73  1  0  0  0  0
 73 74  2  0  0  0  0
 73142  1  0  0  0  0
M  CHG  1  45   1
M  END
>  <Compound ID>
2296

>  <Uniprot>
P61964

>  <Target>
WDR5

>  <E3 ligase>
VHL

>  <Dmax (%)>
N.D.

>  <Article DOI>
10.1021/acs.jmedchem.1c00146

>  <Molecular Weight>
1077.142

>  <Exact Mass>
1075.4047

>  <XLogP3>
5.4000001

>  <Heavy Atom Count>
74

>  <Ring Count>
7

>  <Hydrogen Bond Acceptor Count>
14

>  <Hydrogen Bond Donor Count>
4

>  <Rotatable Bond Count>
27

>  <Topological Polar Surface Area>
204.7

>  <Molecular Formula>
C54H67Cl2N7O10S

>  <InChI>
InChI=1S/C54H67Cl2N7O10S/c1-35-50(74-34-59-35)38-10-7-36(8-11-38)30-58-52(67)45-29-41(64)32-63(45)53(68)51(54(2,3)4)61-48(65)15-17-69-18-19-70-20-21-71-22-23-72-24-25-73-46-14-12-39(44-33-62-16-5-6-47(62)60-44)28-40(46)31-57-49(66)27-37-9-13-42(55)43(56)26-37/h7-14,26,28,33-34,41,45,51,64H,5-6,15-25,27,29-32H2,1-4H3,(H,57,66)(H,58,67)(H,61,65)/t41-,45+,51-/m1/s1

>  <InChI Key>
KYOGCLYFWYQCRH-JSKJCRAUSA-N

$$$$
2297
  MOE2018           3D

149155  0  0  1  0  0  0  0  0999 V2000
   21.3240  -24.0780    2.7730 C   0  0  0  0  0  0  0  0  0  0  0  0
   21.3360  -24.7790    1.4350 C   0  0  0  0  0  0  0  0  0  0  0  0
   20.2540  -24.8990    0.6000 C   0  0  0  0  0  0  0  0  0  0  0  0
   18.8880  -24.4290    0.7910 C   0  0  0  0  0  0  0  0  0  0  0  0
   18.1790  -24.7300    1.9600 C   0  0  0  0  0  0  0  0  0  0  0  0
   16.8790  -24.2730    2.1420 C   0  0  0  0  0  0  0  0  0  0  0  0
   16.2570  -23.5060    1.1570 C   0  0  0  0  0  0  0  0  0  0  0  0
   14.8410  -23.0040    1.3420 C   0  0  0  0  0  0  0  0  0  0  0  0
   14.0310  -23.9570    0.5900 N   0  0  0  0  0  0  0  0  0  0  0  0
   13.4090  -23.6460   -0.5520 C   0  0  0  0  0  0  0  0  0  0  0  0
   13.4900  -22.5170   -1.0350 O   0  0  0  0  0  0  0  0  0  0  0  0
   12.6650  -24.7770   -1.3120 C   0  0  2  0  0  0  0  0  0  0  0  0
   13.3700  -25.1440   -2.6280 C   0  0  0  0  0  0  0  0  0  0  0  0
   12.2410  -25.3890   -3.6240 C   0  0  1  0  0  0  0  0  0  0  0  0
   11.8110  -26.7310   -3.5240 O   0  0  0  0  0  0  0  0  0  0  0  0
   11.1460  -24.4380   -3.1400 C   0  0  0  0  0  0  0  0  0  0  0  0
   11.2910  -24.4260   -1.6900 N   0  0  0  0  0  0  0  0  0  0  0  0
   10.3360  -24.2350   -0.7600 C   0  0  0  0  0  0  0  0  0  0  0  0
   10.5750  -24.5200    0.4160 O   0  0  0  0  0  0  0  0  0  0  0  0
    8.9390  -23.6620   -1.1470 C   0  0  1  0  0  0  0  0  0  0  0  0
    7.8850  -24.3470   -0.3810 N   0  0  0  0  0  0  0  0  0  0  0  0
    6.7380  -24.7790   -0.8950 C   0  0  0  0  0  0  0  0  0  0  0  0
    6.4630  -24.6320   -2.0800 O   0  0  0  0  0  0  0  0  0  0  0  0
    5.7780  -25.4760    0.0570 C   0  0  0  0  0  0  0  0  0  0  0  0
    4.3470  -25.5090   -0.4780 C   0  0  0  0  0  0  0  0  0  0  0  0
    3.5360  -26.1620    0.4850 O   0  0  0  0  0  0  0  0  0  0  0  0
    2.1520  -26.1080    0.1620 C   0  0  0  0  0  0  0  0  0  0  0  0
    1.3600  -26.8940    1.2060 C   0  0  0  0  0  0  0  0  0  0  0  0
    0.0200  -26.4220    1.2410 O   0  0  0  0  0  0  0  0  0  0  0  0
   -0.7930  -27.1580    2.1460 C   0  0  0  0  0  0  0  0  0  0  0  0
   -2.2120  -26.5830    2.1830 C   0  0  0  0  0  0  0  0  0  0  0  0
   -3.0140  -27.1640    1.1620 O   0  0  0  0  0  0  0  0  0  0  0  0
   -4.3490  -26.6770    1.1810 C   0  0  0  0  0  0  0  0  0  0  0  0
   -5.1170  -27.2570   -0.0030 C   0  0  0  0  0  0  0  0  0  0  0  0
   -6.5070  -27.0430    0.2030 O   0  0  0  0  0  0  0  0  0  0  0  0
   -7.2960  -27.4380   -0.9130 C   0  0  0  0  0  0  0  0  0  0  0  0
   -8.7810  -27.2010   -0.6270 C   0  0  0  0  0  0  0  0  0  0  0  0
   -9.1270  -25.8400   -0.8610 O   0  0  0  0  0  0  0  0  0  0  0  0
  -10.5010  -25.5810   -0.6260 C   0  0  0  0  0  0  0  0  0  0  0  0
  -10.7420  -24.0790   -0.7390 C   0  0  0  0  0  0  0  0  0  0  0  0
  -12.1760  -23.9100   -0.6040 O   0  0  0  0  0  0  0  0  0  0  0  0
  -12.8320  -22.6960   -0.5470 C   0  0  0  0  0  0  0  0  0  0  0  0
  -12.1220  -21.4950   -0.5470 C   0  0  0  0  0  0  0  0  0  0  0  0
  -12.8110  -20.2900   -0.4830 C   0  0  0  0  0  0  0  0  0  0  0  0
  -14.2110  -20.2560   -0.4190 C   0  0  0  0  0  0  0  0  0  0  0  0
  -14.9210  -18.9760   -0.3460 C   0  0  0  0  0  0  0  0  0  0  0  0
  -16.2670  -18.7940   -0.1990 C   0  0  0  0  0  0  0  0  0  0  0  0
  -16.4540  -17.4700   -0.1830 N   0  3  0  0  0  0  0  0  0  0  0  0
  -17.5610  -16.5590   -0.0530 C   0  0  0  0  0  0  0  0  0  0  0  0
  -16.9130  -15.2410   -0.5630 C   0  0  0  0  0  0  0  0  0  0  0  0
  -15.3950  -15.3910   -0.2930 C   0  0  0  0  0  0  0  0  0  0  0  0
  -15.2690  -16.8840   -0.3110 C   0  0  0  0  0  0  0  0  0  0  0  0
  -14.3070  -17.7420   -0.4130 N   0  0  0  0  0  0  0  0  0  0  0  0
  -14.9020  -21.4780   -0.4270 C   0  0  0  0  0  0  0  0  0  0  0  0
  -14.2290  -22.6970   -0.4910 C   0  0  0  0  0  0  0  0  0  0  0  0
  -15.0130  -23.9920   -0.5030 C   0  0  0  0  0  0  0  0  0  0  0  0
  -15.5590  -24.0950    0.8420 N   0  0  0  0  0  0  0  0  0  0  0  0
  -16.1690  -25.1480    1.3770 C   0  0  0  0  0  0  0  0  0  0  0  0
  -16.5250  -25.0540    2.5420 O   0  0  0  0  0  0  0  0  0  0  0  0
  -16.3900  -26.4270    0.5850 C   0  0  0  0  0  0  0  0  0  0  0  0
  -15.0760  -27.1990    0.5810 C   0  0  0  0  0  0  0  0  0  0  0  0
  -14.4870  -27.5810    1.7880 C   0  0  0  0  0  0  0  0  0  0  0  0
  -13.2860  -28.2850    1.7970 C   0  0  0  0  0  0  0  0  0  0  0  0
  -12.6590  -28.6160    0.5990 C   0  0  0  0  0  0  0  0  0  0  0  0
  -11.1650  -29.4940    0.6410 Cl  0  0  0  0  0  0  0  0  0  0  0  0
  -13.2450  -28.2350   -0.6200 C   0  0  0  0  0  0  0  0  0  0  0  0
  -12.4880  -28.6130   -2.1330 Cl  0  0  0  0  0  0  0  0  0  0  0  0
  -14.4510  -27.5360   -0.6220 C   0  0  0  0  0  0  0  0  0  0  0  0
    8.8480  -22.1090   -0.9600 C   0  0  0  0  0  0  0  0  0  0  0  0
    9.9090  -21.3810   -1.8090 C   0  0  0  0  0  0  0  0  0  0  0  0
    7.4810  -21.5690   -1.4320 C   0  0  0  0  0  0  0  0  0  0  0  0
    9.0420  -21.6660    0.5050 C   0  0  0  0  0  0  0  0  0  0  0  0
   16.9520  -23.2120   -0.0150 C   0  0  0  0  0  0  0  0  0  0  0  0
   18.2520  -23.6690   -0.1970 C   0  0  0  0  0  0  0  0  0  0  0  0
   20.7130  -25.7410   -0.8220 S   0  0  0  0  0  0  0  0  0  0  0  0
   22.3030  -25.8880   -0.1850 C   0  0  0  0  0  0  0  0  0  0  0  0
   22.4840  -25.3470    0.9860 N   0  0  0  0  0  0  0  0  0  0  0  0
   20.3260  -23.6860    2.9690 H   0  0  0  0  0  0  0  0  0  0  0  0
   22.0410  -23.2570    2.7600 H   0  0  0  0  0  0  0  0  0  0  0  0
   21.5960  -24.7850    3.5560 H   0  0  0  0  0  0  0  0  0  0  0  0
   18.6480  -25.3250    2.7300 H   0  0  0  0  0  0  0  0  0  0  0  0
   16.3480  -24.5130    3.0510 H   0  0  0  0  0  0  0  0  0  0  0  0
   14.7300  -21.9970    0.9390 H   0  0  0  0  0  0  0  0  0  0  0  0
   14.5630  -23.0060    2.3960 H   0  0  0  0  0  0  0  0  0  0  0  0
   13.9360  -24.8960    0.9490 H   0  0  0  0  0  0  0  0  0  0  0  0
   12.6630  -25.6050   -0.6030 H   0  0  0  0  0  0  0  0  0  0  0  0
   13.9720  -26.0440   -2.5020 H   0  0  0  0  0  0  0  0  0  0  0  0
   14.0060  -24.3250   -2.9630 H   0  0  0  0  0  0  0  0  0  0  0  0
   12.5210  -25.2220   -4.6640 H   0  0  0  0  0  0  0  0  0  0  0  0
   11.5620  -26.8890   -2.6100 H   0  0  0  0  0  0  0  0  0  0  0  0
   10.1610  -24.8070   -3.4260 H   0  0  0  0  0  0  0  0  0  0  0  0
   11.2930  -23.4390   -3.5510 H   0  0  0  0  0  0  0  0  0  0  0  0
    8.7930  -23.8510   -2.2100 H   0  0  0  0  0  0  0  0  0  0  0  0
    8.0450  -24.4990    0.6050 H   0  0  0  0  0  0  0  0  0  0  0  0
    6.1180  -26.5000    0.2090 H   0  0  0  0  0  0  0  0  0  0  0  0
    5.7830  -24.9460    1.0090 H   0  0  0  0  0  0  0  0  0  0  0  0
    4.3160  -26.0560   -1.4200 H   0  0  0  0  0  0  0  0  0  0  0  0
    3.9870  -24.4920   -0.6370 H   0  0  0  0  0  0  0  0  0  0  0  0
    1.8190  -25.0700    0.1580 H   0  0  0  0  0  0  0  0  0  0  0  0
    1.9900  -26.5450   -0.8230 H   0  0  0  0  0  0  0  0  0  0  0  0
    1.8180  -26.7590    2.1860 H   0  0  0  0  0  0  0  0  0  0  0  0
    1.3650  -27.9520    0.9450 H   0  0  0  0  0  0  0  0  0  0  0  0
   -0.8360  -28.1990    1.8240 H   0  0  0  0  0  0  0  0  0  0  0  0
   -0.3580  -27.1040    3.1440 H   0  0  0  0  0  0  0  0  0  0  0  0
   -2.1660  -25.5050    2.0320 H   0  0  0  0  0  0  0  0  0  0  0  0
   -2.6590  -26.7950    3.1540 H   0  0  0  0  0  0  0  0  0  0  0  0
   -4.8330  -26.9780    2.1110 H   0  0  0  0  0  0  0  0  0  0  0  0
   -4.3400  -25.5890    1.1110 H   0  0  0  0  0  0  0  0  0  0  0  0
   -4.9180  -28.3260   -0.0800 H   0  0  0  0  0  0  0  0  0  0  0  0
   -4.8020  -26.7620   -0.9220 H   0  0  0  0  0  0  0  0  0  0  0  0
   -7.0010  -26.8550   -1.7860 H   0  0  0  0  0  0  0  0  0  0  0  0
   -7.1330  -28.4970   -1.1110 H   0  0  0  0  0  0  0  0  0  0  0  0
   -8.9890  -27.4490    0.4140 H   0  0  0  0  0  0  0  0  0  0  0  0
   -9.3770  -27.8390   -1.2790 H   0  0  0  0  0  0  0  0  0  0  0  0
  -11.1050  -26.1060   -1.3660 H   0  0  0  0  0  0  0  0  0  0  0  0
  -10.7730  -25.9220    0.3730 H   0  0  0  0  0  0  0  0  0  0  0  0
  -10.4040  -23.7100   -1.7070 H   0  0  0  0  0  0  0  0  0  0  0  0
  -10.2180  -23.5480    0.0560 H   0  0  0  0  0  0  0  0  0  0  0  0
  -11.0430  -21.5020   -0.5960 H   0  0  0  0  0  0  0  0  0  0  0  0
  -12.2580  -19.3620   -0.4830 H   0  0  0  0  0  0  0  0  0  0  0  0
  -17.0230  -19.5600   -0.1130 H   0  0  0  0  0  0  0  0  0  0  0  0
  -18.4030  -16.8590   -0.6760 H   0  0  0  0  0  0  0  0  0  0  0  0
  -17.8890  -16.4710    0.9830 H   0  0  0  0  0  0  0  0  0  0  0  0
  -17.0990  -15.1130   -1.6290 H   0  0  0  0  0  0  0  0  0  0  0  0
  -17.3130  -14.3850   -0.0200 H   0  0  0  0  0  0  0  0  0  0  0  0
  -15.1140  -14.9740    0.6740 H   0  0  0  0  0  0  0  0  0  0  0  0
  -14.7980  -14.9260   -1.0770 H   0  0  0  0  0  0  0  0  0  0  0  0
  -13.3210  -17.5510   -0.5190 H   0  0  0  0  0  0  0  0  0  0  0  0
  -15.9810  -21.4740   -0.3820 H   0  0  0  0  0  0  0  0  0  0  0  0
  -14.3590  -24.8370   -0.7200 H   0  0  0  0  0  0  0  0  0  0  0  0
  -15.8130  -23.9520   -1.2420 H   0  0  0  0  0  0  0  0  0  0  0  0
  -15.4640  -23.2800    1.4310 H   0  0  0  0  0  0  0  0  0  0  0  0
  -17.1710  -27.0250    1.0550 H   0  0  0  0  0  0  0  0  0  0  0  0
  -16.6820  -26.1860   -0.4370 H   0  0  0  0  0  0  0  0  0  0  0  0
  -14.9670  -27.3280    2.7220 H   0  0  0  0  0  0  0  0  0  0  0  0
  -12.8390  -28.5750    2.7360 H   0  0  0  0  0  0  0  0  0  0  0  0
  -14.9050  -27.2530   -1.5600 H   0  0  0  0  0  0  0  0  0  0  0  0
    9.8200  -20.3050   -1.6570 H   0  0  0  0  0  0  0  0  0  0  0  0
    9.7540  -21.6140   -2.8620 H   0  0  0  0  0  0  0  0  0  0  0  0
   10.9040  -21.7090   -1.5070 H   0  0  0  0  0  0  0  0  0  0  0  0
    7.4480  -20.4890   -1.2900 H   0  0  0  0  0  0  0  0  0  0  0  0
    6.6860  -22.0360   -0.8510 H   0  0  0  0  0  0  0  0  0  0  0  0
    7.3440  -21.8010   -2.4880 H   0  0  0  0  0  0  0  0  0  0  0  0
    8.9680  -20.5800    0.5690 H   0  0  0  0  0  0  0  0  0  0  0  0
   10.0240  -21.9840    0.8540 H   0  0  0  0  0  0  0  0  0  0  0  0
    8.2710  -22.1200    1.1270 H   0  0  0  0  0  0  0  0  0  0  0  0
   16.4770  -22.6250   -0.7870 H   0  0  0  0  0  0  0  0  0  0  0  0
   18.7770  -23.4350   -1.1110 H   0  0  0  0  0  0  0  0  0  0  0  0
   23.0950  -26.3930   -0.7180 H   0  0  0  0  0  0  0  0  0  0  0  0
  1  2  1  0  0  0  0
  1 78  1  0  0  0  0
  1 79  1  0  0  0  0
  1 80  1  0  0  0  0
  2  3  2  0  0  0  0
  2 77  1  0  0  0  0
  3  4  1  0  0  0  0
  3 75  1  0  0  0  0
  4  5  1  0  0  0  0
  4 74  2  0  0  0  0
  5  6  2  0  0  0  0
  5 81  1  0  0  0  0
  6  7  1  0  0  0  0
  6 82  1  0  0  0  0
  7  8  1  0  0  0  0
  7 73  2  0  0  0  0
  8  9  1  0  0  0  0
  8 83  1  0  0  0  0
  8 84  1  0  0  0  0
  9 10  1  0  0  0  0
  9 85  1  0  0  0  0
 10 11  2  0  0  0  0
 10 12  1  0  0  0  0
 12 13  1  0  0  0  0
 12 17  1  0  0  0  0
 12 86  1  0  0  0  0
 13 14  1  0  0  0  0
 13 87  1  0  0  0  0
 13 88  1  0  0  0  0
 14 15  1  0  0  0  0
 14 16  1  0  0  0  0
 14 89  1  0  0  0  0
 15 90  1  0  0  0  0
 16 17  1  0  0  0  0
 16 91  1  0  0  0  0
 16 92  1  0  0  0  0
 17 18  1  0  0  0  0
 18 19  2  0  0  0  0
 18 20  1  0  0  0  0
 20 21  1  0  0  0  0
 20 69  1  0  0  0  0
 20 93  1  0  0  0  0
 21 22  1  0  0  0  0
 21 94  1  0  0  0  0
 22 23  2  0  0  0  0
 22 24  1  0  0  0  0
 24 25  1  0  0  0  0
 24 95  1  0  0  0  0
 24 96  1  0  0  0  0
 25 26  1  0  0  0  0
 25 97  1  0  0  0  0
 25 98  1  0  0  0  0
 26 27  1  0  0  0  0
 27 28  1  0  0  0  0
 27 99  1  0  0  0  0
 27100  1  0  0  0  0
 28 29  1  0  0  0  0
 28101  1  0  0  0  0
 28102  1  0  0  0  0
 29 30  1  0  0  0  0
 30 31  1  0  0  0  0
 30103  1  0  0  0  0
 30104  1  0  0  0  0
 31 32  1  0  0  0  0
 31105  1  0  0  0  0
 31106  1  0  0  0  0
 32 33  1  0  0  0  0
 33 34  1  0  0  0  0
 33107  1  0  0  0  0
 33108  1  0  0  0  0
 34 35  1  0  0  0  0
 34109  1  0  0  0  0
 34110  1  0  0  0  0
 35 36  1  0  0  0  0
 36 37  1  0  0  0  0
 36111  1  0  0  0  0
 36112  1  0  0  0  0
 37 38  1  0  0  0  0
 37113  1  0  0  0  0
 37114  1  0  0  0  0
 38 39  1  0  0  0  0
 39 40  1  0  0  0  0
 39115  1  0  0  0  0
 39116  1  0  0  0  0
 40 41  1  0  0  0  0
 40117  1  0  0  0  0
 40118  1  0  0  0  0
 41 42  1  0  0  0  0
 42 43  1  0  0  0  0
 42 55  2  0  0  0  0
 43 44  2  0  0  0  0
 43119  1  0  0  0  0
 44 45  1  0  0  0  0
 44120  1  0  0  0  0
 45 46  1  0  0  0  0
 45 54  2  0  0  0  0
 46 47  2  0  0  0  0
 46 53  1  0  0  0  0
 47 48  1  0  0  0  0
 47121  1  0  0  0  0
 48 49  1  0  0  0  0
 48 52  2  0  0  0  0
 49 50  1  0  0  0  0
 49122  1  0  0  0  0
 49123  1  0  0  0  0
 50 51  1  0  0  0  0
 50124  1  0  0  0  0
 50125  1  0  0  0  0
 51 52  1  0  0  0  0
 51126  1  0  0  0  0
 51127  1  0  0  0  0
 52 53  1  0  0  0  0
 53128  1  0  0  0  0
 54 55  1  0  0  0  0
 54129  1  0  0  0  0
 55 56  1  0  0  0  0
 56 57  1  0  0  0  0
 56130  1  0  0  0  0
 56131  1  0  0  0  0
 57 58  1  0  0  0  0
 57132  1  0  0  0  0
 58 59  2  0  0  0  0
 58 60  1  0  0  0  0
 60 61  1  0  0  0  0
 60133  1  0  0  0  0
 60134  1  0  0  0  0
 61 62  2  0  0  0  0
 61 68  1  0  0  0  0
 62 63  1  0  0  0  0
 62135  1  0  0  0  0
 63 64  2  0  0  0  0
 63136  1  0  0  0  0
 64 65  1  0  0  0  0
 64 66  1  0  0  0  0
 66 67  1  0  0  0  0
 66 68  2  0  0  0  0
 68137  1  0  0  0  0
 69 70  1  0  0  0  0
 69 71  1  0  0  0  0
 69 72  1  0  0  0  0
 70138  1  0  0  0  0
 70139  1  0  0  0  0
 70140  1  0  0  0  0
 71141  1  0  0  0  0
 71142  1  0  0  0  0
 71143  1  0  0  0  0
 72144  1  0  0  0  0
 72145  1  0  0  0  0
 72146  1  0  0  0  0
 73 74  1  0  0  0  0
 73147  1  0  0  0  0
 74148  1  0  0  0  0
 75 76  1  0  0  0  0
 76 77  2  0  0  0  0
 76149  1  0  0  0  0
M  CHG  1  48   1
M  END
>  <Compound ID>
2297

>  <Uniprot>
P61964

>  <Target>
WDR5

>  <E3 ligase>
VHL

>  <Dmax (%)>
N.D.

>  <Article DOI>
10.1021/acs.jmedchem.1c00146

>  <Molecular Weight>
1121.1949

>  <Exact Mass>
1119.4309

>  <XLogP3>
5.25

>  <Heavy Atom Count>
77

>  <Ring Count>
7

>  <Hydrogen Bond Acceptor Count>
15

>  <Hydrogen Bond Donor Count>
4

>  <Rotatable Bond Count>
30

>  <Topological Polar Surface Area>
213.92999

>  <Molecular Formula>
C56H71Cl2N7O11S

>  <InChI>
InChI=1S/C56H71Cl2N7O11S/c1-37-52(77-36-61-37)40-10-7-38(8-11-40)32-60-54(69)47-31-43(66)34-65(47)55(70)53(56(2,3)4)63-50(67)15-17-71-18-19-72-20-21-73-22-23-74-24-25-75-26-27-76-48-14-12-41(46-35-64-16-5-6-49(64)62-46)30-42(48)33-59-51(68)29-39-9-13-44(57)45(58)28-39/h7-14,28,30,35-36,43,47,53,66H,5-6,15-27,29,31-34H2,1-4H3,(H,59,68)(H,60,69)(H,63,67)/t43-,47+,53-/m1/s1

>  <InChI Key>
BWKMAVVUNCRRQL-LGIBPJQYSA-N

$$$$
2298
  MOE2018           3D

156162  0  0  1  0  0  0  0  0999 V2000
   28.8160   32.3630   -4.1810 C   0  0  0  0  0  0  0  0  0  0  0  0
   28.8690   32.8790   -2.7610 C   0  0  0  0  0  0  0  0  0  0  0  0
   28.5850   32.1380   -1.6420 C   0  0  0  0  0  0  0  0  0  0  0  0
   28.1610   30.7480   -1.5380 C   0  0  0  0  0  0  0  0  0  0  0  0
   27.0690   30.2700   -2.2720 C   0  0  0  0  0  0  0  0  0  0  0  0
   26.6710   28.9410   -2.1720 C   0  0  0  0  0  0  0  0  0  0  0  0
   27.3550   28.0610   -1.3340 C   0  0  0  0  0  0  0  0  0  0  0  0
   26.9190   26.6160   -1.2150 C   0  0  0  0  0  0  0  0  0  0  0  0
   25.9880   26.6360   -0.1010 N   0  0  0  0  0  0  0  0  0  0  0  0
   25.5850   25.5170    0.5050 C   0  0  0  0  0  0  0  0  0  0  0  0
   26.0610   24.4270    0.1930 O   0  0  0  0  0  0  0  0  0  0  0  0
   24.5650   25.6350    1.6700 C   0  0  2  0  0  0  0  0  0  0  0  0
   25.1740   25.1950    3.0110 C   0  0  0  0  0  0  0  0  0  0  0  0
   24.0640   24.4180    3.7140 C   0  0  1  0  0  0  0  0  0  0  0  0
   23.2500   25.3160    4.4390 O   0  0  0  0  0  0  0  0  0  0  0  0
   23.2860   23.8040    2.5490 C   0  0  0  0  0  0  0  0  0  0  0  0
   23.3740   24.7980    1.4870 N   0  0  0  0  0  0  0  0  0  0  0  0
   22.4860   25.0450    0.5050 C   0  0  0  0  0  0  0  0  0  0  0  0
   22.5810   26.0880   -0.1470 O   0  0  0  0  0  0  0  0  0  0  0  0
   21.3500   24.0300    0.1800 C   0  0  1  0  0  0  0  0  0  0  0  0
   20.0880   24.7400   -0.0890 N   0  0  0  0  0  0  0  0  0  0  0  0
   18.9110   24.3940    0.4240 C   0  0  0  0  0  0  0  0  0  0  0  0
   18.7930   23.4360    1.1790 O   0  0  0  0  0  0  0  0  0  0  0  0
   17.7110   25.2460    0.0360 C   0  0  0  0  0  0  0  0  0  0  0  0
   16.3870   24.6030    0.4470 C   0  0  0  0  0  0  0  0  0  0  0  0
   15.3270   25.4540    0.0400 O   0  0  0  0  0  0  0  0  0  0  0  0
   14.0520   24.8800    0.3010 C   0  0  0  0  0  0  0  0  0  0  0  0
   12.9510   25.8590   -0.1020 C   0  0  0  0  0  0  0  0  0  0  0  0
   11.7020   25.1810   -0.0810 O   0  0  0  0  0  0  0  0  0  0  0  0
   10.6050   26.0360   -0.3750 C   0  0  0  0  0  0  0  0  0  0  0  0
    9.3290   25.2000   -0.4140 C   0  0  0  0  0  0  0  0  0  0  0  0
    8.1950   26.0560   -0.4810 O   0  0  0  0  0  0  0  0  0  0  0  0
    6.9810   25.3220   -0.5770 C   0  0  0  0  0  0  0  0  0  0  0  0
    5.7940   26.2820   -0.5520 C   0  0  0  0  0  0  0  0  0  0  0  0
    4.6050   25.5420   -0.7910 O   0  0  0  0  0  0  0  0  0  0  0  0
    3.4310   26.3370   -0.6860 C   0  0  0  0  0  0  0  0  0  0  0  0
    2.2170   25.4630   -0.9910 C   0  0  0  0  0  0  0  0  0  0  0  0
    1.0300   26.1150   -0.5570 O   0  0  0  0  0  0  0  0  0  0  0  0
   -0.1300   25.3360   -0.8210 C   0  0  0  0  0  0  0  0  0  0  0  0
   -1.3590   26.0210   -0.2300 C   0  0  0  0  0  0  0  0  0  0  0  0
   -2.4820   25.1730   -0.4270 O   0  0  0  0  0  0  0  0  0  0  0  0
   -3.6700   25.6890    0.1550 C   0  0  0  0  0  0  0  0  0  0  0  0
   -4.8170   24.7510   -0.2050 C   0  0  0  0  0  0  0  0  0  0  0  0
   -5.9750   25.2820    0.4780 O   0  0  0  0  0  0  0  0  0  0  0  0
   -7.2510   24.7730    0.3860 C   0  0  0  0  0  0  0  0  0  0  0  0
   -7.5580   23.7670   -0.5320 C   0  0  0  0  0  0  0  0  0  0  0  0
   -8.8590   23.2870   -0.6150 C   0  0  0  0  0  0  0  0  0  0  0  0
   -9.8710   23.7970    0.2110 C   0  0  0  0  0  0  0  0  0  0  0  0
  -11.2480   23.3090    0.1210 C   0  0  0  0  0  0  0  0  0  0  0  0
  -11.6800   22.1940   -0.5380 C   0  0  0  0  0  0  0  0  0  0  0  0
  -13.0020   22.1510   -0.3470 N   0  3  0  0  0  0  0  0  0  0  0  0
  -14.0970   21.2900   -0.7120 C   0  0  0  0  0  0  0  0  0  0  0  0
  -15.3070   22.2220   -0.4230 C   0  0  0  0  0  0  0  0  0  0  0  0
  -14.8210   23.2110    0.6650 C   0  0  0  0  0  0  0  0  0  0  0  0
  -13.3470   23.1950    0.3990 C   0  0  0  0  0  0  0  0  0  0  0  0
  -12.3290   23.9310    0.7100 N   0  0  0  0  0  0  0  0  0  0  0  0
   -9.5340   24.8030    1.1300 C   0  0  0  0  0  0  0  0  0  0  0  0
   -8.2350   25.2980    1.2270 C   0  0  0  0  0  0  0  0  0  0  0  0
   -7.9280   26.4240    2.1950 C   0  0  0  0  0  0  0  0  0  0  0  0
   -8.3040   27.5880    1.4110 N   0  0  0  0  0  0  0  0  0  0  0  0
   -7.4430   28.5550    1.0990 C   0  0  0  0  0  0  0  0  0  0  0  0
   -6.4200   28.7440    1.7490 O   0  0  0  0  0  0  0  0  0  0  0  0
   -7.7470   29.3340   -0.1630 C   0  0  0  0  0  0  0  0  0  0  0  0
   -7.5000   28.3500   -1.2980 C   0  0  0  0  0  0  0  0  0  0  0  0
   -8.5550   27.6290   -1.8570 C   0  0  0  0  0  0  0  0  0  0  0  0
   -8.3110   26.6690   -2.8360 C   0  0  0  0  0  0  0  0  0  0  0  0
   -7.0100   26.4260   -3.2710 C   0  0  0  0  0  0  0  0  0  0  0  0
   -6.7350   25.2040   -4.4700 Cl  0  0  0  0  0  0  0  0  0  0  0  0
   -5.9460   27.1670   -2.7290 C   0  0  0  0  0  0  0  0  0  0  0  0
   -4.3140   26.9150   -3.2600 Cl  0  0  0  0  0  0  0  0  0  0  0  0
   -6.1970   28.1180   -1.7420 C   0  0  0  0  0  0  0  0  0  0  0  0
   21.7150   23.0680   -1.0010 C   0  0  0  0  0  0  0  0  0  0  0  0
   23.0010   22.2730   -0.6940 C   0  0  0  0  0  0  0  0  0  0  0  0
   20.6060   22.0180   -1.2250 C   0  0  0  0  0  0  0  0  0  0  0  0
   21.9320   23.8060   -2.3380 C   0  0  0  0  0  0  0  0  0  0  0  0
   28.4360   28.5320   -0.5910 C   0  0  0  0  0  0  0  0  0  0  0  0
   28.8340   29.8600   -0.6910 C   0  0  0  0  0  0  0  0  0  0  0  0
   28.7960   33.1050   -0.2420 S   0  0  0  0  0  0  0  0  0  0  0  0
   29.2230   34.4260   -1.2550 C   0  0  0  0  0  0  0  0  0  0  0  0
   29.2200   34.1700   -2.5320 N   0  0  0  0  0  0  0  0  0  0  0  0
   28.5180   31.3140   -4.1760 H   0  0  0  0  0  0  0  0  0  0  0  0
   29.8000   32.4590   -4.6390 H   0  0  0  0  0  0  0  0  0  0  0  0
   28.0910   32.9440   -4.7520 H   0  0  0  0  0  0  0  0  0  0  0  0
   26.5290   30.9410   -2.9240 H   0  0  0  0  0  0  0  0  0  0  0  0
   25.8270   28.5890   -2.7470 H   0  0  0  0  0  0  0  0  0  0  0  0
   27.7690   25.9680   -1.0010 H   0  0  0  0  0  0  0  0  0  0  0  0
   26.4270   26.2800   -2.1280 H   0  0  0  0  0  0  0  0  0  0  0  0
   25.6340   27.5240    0.2250 H   0  0  0  0  0  0  0  0  0  0  0  0
   24.2920   26.6900    1.6730 H   0  0  0  0  0  0  0  0  0  0  0  0
   25.4670   26.0630    3.6020 H   0  0  0  0  0  0  0  0  0  0  0  0
   26.0430   24.5570    2.8460 H   0  0  0  0  0  0  0  0  0  0  0  0
   24.4230   23.6730    4.4240 H   0  0  0  0  0  0  0  0  0  0  0  0
   22.9280   25.9780    3.8230 H   0  0  0  0  0  0  0  0  0  0  0  0
   22.2470   23.6300    2.8290 H   0  0  0  0  0  0  0  0  0  0  0  0
   23.7400   22.8640    2.2350 H   0  0  0  0  0  0  0  0  0  0  0  0
   21.2220   23.4010    1.0610 H   0  0  0  0  0  0  0  0  0  0  0  0
   20.1190   25.5420   -0.7030 H   0  0  0  0  0  0  0  0  0  0  0  0
   17.7970   26.2160    0.5260 H   0  0  0  0  0  0  0  0  0  0  0  0
   17.7130   25.3830   -1.0450 H   0  0  0  0  0  0  0  0  0  0  0  0
   16.3610   24.4750    1.5290 H   0  0  0  0  0  0  0  0  0  0  0  0
   16.2850   23.6310   -0.0360 H   0  0  0  0  0  0  0  0  0  0  0  0
   13.9450   23.9590   -0.2730 H   0  0  0  0  0  0  0  0  0  0  0  0
   13.9660   24.6570    1.3650 H   0  0  0  0  0  0  0  0  0  0  0  0
   13.1460   26.2360   -1.1060 H   0  0  0  0  0  0  0  0  0  0  0  0
   12.9270   26.6920    0.6000 H   0  0  0  0  0  0  0  0  0  0  0  0
   10.5190   26.8010    0.3970 H   0  0  0  0  0  0  0  0  0  0  0  0
   10.7610   26.5130   -1.3430 H   0  0  0  0  0  0  0  0  0  0  0  0
    9.2690   24.5890    0.4870 H   0  0  0  0  0  0  0  0  0  0  0  0
    9.3470   24.5530   -1.2910 H   0  0  0  0  0  0  0  0  0  0  0  0
    6.9710   24.7590   -1.5100 H   0  0  0  0  0  0  0  0  0  0  0  0
    6.9070   24.6330    0.2640 H   0  0  0  0  0  0  0  0  0  0  0  0
    5.9170   27.0380   -1.3270 H   0  0  0  0  0  0  0  0  0  0  0  0
    5.7350   26.7670    0.4220 H   0  0  0  0  0  0  0  0  0  0  0  0
    3.3490   26.7380    0.3240 H   0  0  0  0  0  0  0  0  0  0  0  0
    3.4800   27.1590   -1.4000 H   0  0  0  0  0  0  0  0  0  0  0  0
    2.3170   24.5110   -0.4700 H   0  0  0  0  0  0  0  0  0  0  0  0
    2.1600   25.2860   -2.0650 H   0  0  0  0  0  0  0  0  0  0  0  0
   -0.2580   25.2310   -1.8980 H   0  0  0  0  0  0  0  0  0  0  0  0
   -0.0140   24.3500   -0.3710 H   0  0  0  0  0  0  0  0  0  0  0  0
   -1.5250   26.9750   -0.7310 H   0  0  0  0  0  0  0  0  0  0  0  0
   -1.2090   26.1910    0.8360 H   0  0  0  0  0  0  0  0  0  0  0  0
   -3.5600   25.7400    1.2380 H   0  0  0  0  0  0  0  0  0  0  0  0
   -3.8710   26.6860   -0.2370 H   0  0  0  0  0  0  0  0  0  0  0  0
   -4.6030   23.7380    0.1370 H   0  0  0  0  0  0  0  0  0  0  0  0
   -4.9800   24.7440   -1.2830 H   0  0  0  0  0  0  0  0  0  0  0  0
   -6.7890   23.3640   -1.1740 H   0  0  0  0  0  0  0  0  0  0  0  0
   -9.0950   22.5090   -1.3260 H   0  0  0  0  0  0  0  0  0  0  0  0
  -11.0790   21.4930   -1.0970 H   0  0  0  0  0  0  0  0  0  0  0  0
  -14.0510   21.0060   -1.7630 H   0  0  0  0  0  0  0  0  0  0  0  0
  -14.1250   20.3920   -0.0940 H   0  0  0  0  0  0  0  0  0  0  0  0
  -15.5960   22.7610   -1.3250 H   0  0  0  0  0  0  0  0  0  0  0  0
  -16.1550   21.6420   -0.0590 H   0  0  0  0  0  0  0  0  0  0  0  0
  -15.0540   22.8540    1.6680 H   0  0  0  0  0  0  0  0  0  0  0  0
  -15.2460   24.2050    0.5250 H   0  0  0  0  0  0  0  0  0  0  0  0
  -12.3270   24.7760    1.2630 H   0  0  0  0  0  0  0  0  0  0  0  0
  -10.3000   25.2030    1.7780 H   0  0  0  0  0  0  0  0  0  0  0  0
   -6.8710   26.4460    2.4590 H   0  0  0  0  0  0  0  0  0  0  0  0
   -8.5270   26.3440    3.1020 H   0  0  0  0  0  0  0  0  0  0  0  0
   -9.2580   27.6670    1.0890 H   0  0  0  0  0  0  0  0  0  0  0  0
   -8.7840   29.6710   -0.1660 H   0  0  0  0  0  0  0  0  0  0  0  0
   -7.0850   30.1950   -0.2510 H   0  0  0  0  0  0  0  0  0  0  0  0
   -9.5670   27.8160   -1.5290 H   0  0  0  0  0  0  0  0  0  0  0  0
   -9.1330   26.1110   -3.2590 H   0  0  0  0  0  0  0  0  0  0  0  0
   -5.3780   28.6790   -1.3180 H   0  0  0  0  0  0  0  0  0  0  0  0
   23.2290   21.6140   -1.5320 H   0  0  0  0  0  0  0  0  0  0  0  0
   22.8540   21.6780    0.2070 H   0  0  0  0  0  0  0  0  0  0  0  0
   23.8290   22.9660   -0.5410 H   0  0  0  0  0  0  0  0  0  0  0  0
   20.8860   21.3640   -2.0510 H   0  0  0  0  0  0  0  0  0  0  0  0
   19.6700   22.5230   -1.4630 H   0  0  0  0  0  0  0  0  0  0  0  0
   20.4780   21.4250   -0.3190 H   0  0  0  0  0  0  0  0  0  0  0  0
   22.1820   23.0840   -3.1150 H   0  0  0  0  0  0  0  0  0  0  0  0
   22.7480   24.5210   -2.2300 H   0  0  0  0  0  0  0  0  0  0  0  0
   21.0200   24.3350   -2.6130 H   0  0  0  0  0  0  0  0  0  0  0  0
   28.9680   27.8610    0.0670 H   0  0  0  0  0  0  0  0  0  0  0  0
   29.6730   30.2110   -0.1080 H   0  0  0  0  0  0  0  0  0  0  0  0
   29.4760   35.3990   -0.8610 H   0  0  0  0  0  0  0  0  0  0  0  0
  1  2  1  0  0  0  0
  1 81  1  0  0  0  0
  1 82  1  0  0  0  0
  1 83  1  0  0  0  0
  2  3  2  0  0  0  0
  2 80  1  0  0  0  0
  3  4  1  0  0  0  0
  3 78  1  0  0  0  0
  4  5  1  0  0  0  0
  4 77  2  0  0  0  0
  5  6  2  0  0  0  0
  5 84  1  0  0  0  0
  6  7  1  0  0  0  0
  6 85  1  0  0  0  0
  7  8  1  0  0  0  0
  7 76  2  0  0  0  0
  8  9  1  0  0  0  0
  8 86  1  0  0  0  0
  8 87  1  0  0  0  0
  9 10  1  0  0  0  0
  9 88  1  0  0  0  0
 10 11  2  0  0  0  0
 10 12  1  0  0  0  0
 12 13  1  0  0  0  0
 12 17  1  0  0  0  0
 12 89  1  0  0  0  0
 13 14  1  0  0  0  0
 13 90  1  0  0  0  0
 13 91  1  0  0  0  0
 14 15  1  0  0  0  0
 14 16  1  0  0  0  0
 14 92  1  0  0  0  0
 15 93  1  0  0  0  0
 16 17  1  0  0  0  0
 16 94  1  0  0  0  0
 16 95  1  0  0  0  0
 17 18  1  0  0  0  0
 18 19  2  0  0  0  0
 18 20  1  0  0  0  0
 20 21  1  0  0  0  0
 20 72  1  0  0  0  0
 20 96  1  0  0  0  0
 21 22  1  0  0  0  0
 21 97  1  0  0  0  0
 22 23  2  0  0  0  0
 22 24  1  0  0  0  0
 24 25  1  0  0  0  0
 24 98  1  0  0  0  0
 24 99  1  0  0  0  0
 25 26  1  0  0  0  0
 25100  1  0  0  0  0
 25101  1  0  0  0  0
 26 27  1  0  0  0  0
 27 28  1  0  0  0  0
 27102  1  0  0  0  0
 27103  1  0  0  0  0
 28 29  1  0  0  0  0
 28104  1  0  0  0  0
 28105  1  0  0  0  0
 29 30  1  0  0  0  0
 30 31  1  0  0  0  0
 30106  1  0  0  0  0
 30107  1  0  0  0  0
 31 32  1  0  0  0  0
 31108  1  0  0  0  0
 31109  1  0  0  0  0
 32 33  1  0  0  0  0
 33 34  1  0  0  0  0
 33110  1  0  0  0  0
 33111  1  0  0  0  0
 34 35  1  0  0  0  0
 34112  1  0  0  0  0
 34113  1  0  0  0  0
 35 36  1  0  0  0  0
 36 37  1  0  0  0  0
 36114  1  0  0  0  0
 36115  1  0  0  0  0
 37 38  1  0  0  0  0
 37116  1  0  0  0  0
 37117  1  0  0  0  0
 38 39  1  0  0  0  0
 39 40  1  0  0  0  0
 39118  1  0  0  0  0
 39119  1  0  0  0  0
 40 41  1  0  0  0  0
 40120  1  0  0  0  0
 40121  1  0  0  0  0
 41 42  1  0  0  0  0
 42 43  1  0  0  0  0
 42122  1  0  0  0  0
 42123  1  0  0  0  0
 43 44  1  0  0  0  0
 43124  1  0  0  0  0
 43125  1  0  0  0  0
 44 45  1  0  0  0  0
 45 46  1  0  0  0  0
 45 58  2  0  0  0  0
 46 47  2  0  0  0  0
 46126  1  0  0  0  0
 47 48  1  0  0  0  0
 47127  1  0  0  0  0
 48 49  1  0  0  0  0
 48 57  2  0  0  0  0
 49 50  2  0  0  0  0
 49 56  1  0  0  0  0
 50 51  1  0  0  0  0
 50128  1  0  0  0  0
 51 52  1  0  0  0  0
 51 55  2  0  0  0  0
 52 53  1  0  0  0  0
 52129  1  0  0  0  0
 52130  1  0  0  0  0
 53 54  1  0  0  0  0
 53131  1  0  0  0  0
 53132  1  0  0  0  0
 54 55  1  0  0  0  0
 54133  1  0  0  0  0
 54134  1  0  0  0  0
 55 56  1  0  0  0  0
 56135  1  0  0  0  0
 57 58  1  0  0  0  0
 57136  1  0  0  0  0
 58 59  1  0  0  0  0
 59 60  1  0  0  0  0
 59137  1  0  0  0  0
 59138  1  0  0  0  0
 60 61  1  0  0  0  0
 60139  1  0  0  0  0
 61 62  2  0  0  0  0
 61 63  1  0  0  0  0
 63 64  1  0  0  0  0
 63140  1  0  0  0  0
 63141  1  0  0  0  0
 64 65  2  0  0  0  0
 64 71  1  0  0  0  0
 65 66  1  0  0  0  0
 65142  1  0  0  0  0
 66 67  2  0  0  0  0
 66143  1  0  0  0  0
 67 68  1  0  0  0  0
 67 69  1  0  0  0  0
 69 70  1  0  0  0  0
 69 71  2  0  0  0  0
 71144  1  0  0  0  0
 72 73  1  0  0  0  0
 72 74  1  0  0  0  0
 72 75  1  0  0  0  0
 73145  1  0  0  0  0
 73146  1  0  0  0  0
 73147  1  0  0  0  0
 74148  1  0  0  0  0
 74149  1  0  0  0  0
 74150  1  0  0  0  0
 75151  1  0  0  0  0
 75152  1  0  0  0  0
 75153  1  0  0  0  0
 76 77  1  0  0  0  0
 76154  1  0  0  0  0
 77155  1  0  0  0  0
 78 79  1  0  0  0  0
 79 80  2  0  0  0  0
 79156  1  0  0  0  0
M  CHG  1  51   1
M  END
>  <Compound ID>
2298

>  <Uniprot>
P61964

>  <Target>
WDR5

>  <E3 ligase>
VHL

>  <Dmax (%)>
N.D.

>  <Article DOI>
10.1021/acs.jmedchem.1c00146

>  <Molecular Weight>
1165.248

>  <Exact Mass>
1163.4572

>  <XLogP3>
5.0999999

>  <Heavy Atom Count>
80

>  <Ring Count>
7

>  <Hydrogen Bond Acceptor Count>
16

>  <Hydrogen Bond Donor Count>
4

>  <Rotatable Bond Count>
33

>  <Topological Polar Surface Area>
223.16

>  <Molecular Formula>
C58H75Cl2N7O12S

>  <InChI>
InChI=1S/C58H75Cl2N7O12S/c1-39-54(80-38-63-39)42-10-7-40(8-11-42)34-62-56(71)49-33-45(68)36-67(49)57(72)55(58(2,3)4)65-52(69)15-17-73-18-19-74-20-21-75-22-23-76-24-25-77-26-27-78-28-29-79-50-14-12-43(48-37-66-16-5-6-51(66)64-48)32-44(50)35-61-53(70)31-41-9-13-46(59)47(60)30-41/h7-14,30,32,37-38,45,49,55,68H,5-6,15-29,31,33-36H2,1-4H3,(H,61,70)(H,62,71)(H,65,69)/t45-,49+,55-/m1/s1

>  <InChI Key>
BKYWMROBTBIDEK-JVPKQGNTSA-N

$$$$
2299
  MOE2018           3D

163169  0  0  1  0  0  0  0  0999 V2000
   30.5940   26.6980    5.4940 C   0  0  0  0  0  0  0  0  0  0  0  0
   29.8500   25.3860    5.4140 C   0  0  0  0  0  0  0  0  0  0  0  0
   29.1380   24.9480    4.3250 C   0  0  0  0  0  0  0  0  0  0  0  0
   28.9050   25.6090    3.0470 C   0  0  0  0  0  0  0  0  0  0  0  0
   28.4620   26.9360    2.9890 C   0  0  0  0  0  0  0  0  0  0  0  0
   28.2430   27.5620    1.7670 C   0  0  0  0  0  0  0  0  0  0  0  0
   28.4600   26.8740    0.5740 C   0  0  0  0  0  0  0  0  0  0  0  0
   28.2170   27.5460   -0.7630 C   0  0  0  0  0  0  0  0  0  0  0  0
   26.8250   27.2510   -1.0670 N   0  0  0  0  0  0  0  0  0  0  0  0
   26.4320   26.2120   -1.8030 C   0  0  0  0  0  0  0  0  0  0  0  0
   27.2540   25.5250   -2.4080 O   0  0  0  0  0  0  0  0  0  0  0  0
   24.9020   25.9280   -1.9260 C   0  0  2  0  0  0  0  0  0  0  0  0
   24.5400   25.0130   -3.1120 C   0  0  0  0  0  0  0  0  0  0  0  0
   23.2300   25.5620   -3.6640 C   0  0  1  0  0  0  0  0  0  0  0  0
   22.1300   24.9720   -3.0030 O   0  0  0  0  0  0  0  0  0  0  0  0
   23.3460   27.0500   -3.3400 C   0  0  0  0  0  0  0  0  0  0  0  0
   24.0140   27.1060   -2.0420 N   0  0  0  0  0  0  0  0  0  0  0  0
   23.6430   27.8280   -0.9580 C   0  0  0  0  0  0  0  0  0  0  0  0
   24.3330   27.7530    0.0570 O   0  0  0  0  0  0  0  0  0  0  0  0
   22.3540   28.7310   -0.9940 C   0  0  1  0  0  0  0  0  0  0  0  0
   21.0840   28.0340   -1.3130 N   0  0  0  0  0  0  0  0  0  0  0  0
   20.7470   26.7970   -0.9490 C   0  0  0  0  0  0  0  0  0  0  0  0
   21.5270   26.0190   -0.4210 O   0  0  0  0  0  0  0  0  0  0  0  0
   19.3260   26.3580   -1.2450 C   0  0  0  0  0  0  0  0  0  0  0  0
   18.3750   26.7970   -0.1360 C   0  0  0  0  0  0  0  0  0  0  0  0
   17.0610   26.4570   -0.5420 O   0  0  0  0  0  0  0  0  0  0  0  0
   16.0700   26.8330    0.4050 C   0  0  0  0  0  0  0  0  0  0  0  0
   14.7060   26.3560   -0.0890 C   0  0  0  0  0  0  0  0  0  0  0  0
   13.6810   26.9480    0.6990 O   0  0  0  0  0  0  0  0  0  0  0  0
   12.3850   26.5060    0.3150 C   0  0  0  0  0  0  0  0  0  0  0  0
   11.3300   27.2440    1.1350 C   0  0  0  0  0  0  0  0  0  0  0  0
   10.0490   26.7190    0.8150 O   0  0  0  0  0  0  0  0  0  0  0  0
    8.9950   27.4090    1.4740 C   0  0  0  0  0  0  0  0  0  0  0  0
    7.6660   26.7610    1.0940 C   0  0  0  0  0  0  0  0  0  0  0  0
    6.5910   27.5930    1.5110 O   0  0  0  0  0  0  0  0  0  0  0  0
    5.3250   27.0290    1.1900 C   0  0  0  0  0  0  0  0  0  0  0  0
    4.2170   28.0070    1.5720 C   0  0  0  0  0  0  0  0  0  0  0  0
    2.9610   27.4150    1.2710 O   0  0  0  0  0  0  0  0  0  0  0  0
    1.8690   28.2910    1.5180 C   0  0  0  0  0  0  0  0  0  0  0  0
    0.5690   27.5620    1.1860 C   0  0  0  0  0  0  0  0  0  0  0  0
   -0.5160   28.4810    1.2220 O   0  0  0  0  0  0  0  0  0  0  0  0
   -1.7570   27.8520    0.9300 C   0  0  0  0  0  0  0  0  0  0  0  0
   -2.8650   28.9000    0.8990 C   0  0  0  0  0  0  0  0  0  0  0  0
   -4.0930   28.2590    0.5800 O   0  0  0  0  0  0  0  0  0  0  0  0
   -5.1730   29.1720    0.4530 C   0  0  0  0  0  0  0  0  0  0  0  0
   -6.4390   28.3820    0.1390 C   0  0  0  0  0  0  0  0  0  0  0  0
   -7.4720   29.3730   -0.0770 O   0  0  0  0  0  0  0  0  0  0  0  0
   -8.8080   29.0810   -0.2770 C   0  0  0  0  0  0  0  0  0  0  0  0
   -9.2560   27.7600   -0.3470 C   0  0  0  0  0  0  0  0  0  0  0  0
  -10.6070   27.5000   -0.5510 C   0  0  0  0  0  0  0  0  0  0  0  0
  -11.5270   28.5480   -0.6990 C   0  0  0  0  0  0  0  0  0  0  0  0
  -12.9570   28.3050   -0.8860 C   0  0  0  0  0  0  0  0  0  0  0  0
  -13.5590   27.1240   -1.2100 C   0  0  0  0  0  0  0  0  0  0  0  0
  -14.8680   27.3930   -1.2730 N   0  3  0  0  0  0  0  0  0  0  0  0
  -16.0830   26.6780   -1.5660 C   0  0  0  0  0  0  0  0  0  0  0  0
  -17.1430   27.6640   -0.9960 C   0  0  0  0  0  0  0  0  0  0  0  0
  -16.4860   29.0650   -1.0590 C   0  0  0  0  0  0  0  0  0  0  0  0
  -15.0400   28.6820   -0.9990 C   0  0  0  0  0  0  0  0  0  0  0  0
  -13.9210   29.2830   -0.7540 N   0  0  0  0  0  0  0  0  0  0  0  0
  -11.0460   29.8620   -0.6500 C   0  0  0  0  0  0  0  0  0  0  0  0
   -9.7050   30.1440   -0.4140 C   0  0  0  0  0  0  0  0  0  0  0  0
   -9.2620   31.5910   -0.3230 C   0  0  0  0  0  0  0  0  0  0  0  0
   -8.7970   31.8110    1.0470 N   0  0  0  0  0  0  0  0  0  0  0  0
   -9.5050   31.9330    2.1680 C   0  0  0  0  0  0  0  0  0  0  0  0
   -8.8590   32.1700    3.1780 O   0  0  0  0  0  0  0  0  0  0  0  0
  -11.0210   31.8040    2.2280 C   0  0  0  0  0  0  0  0  0  0  0  0
  -11.6860   32.9530    1.4740 C   0  0  0  0  0  0  0  0  0  0  0  0
  -11.1880   34.2560    1.5510 C   0  0  0  0  0  0  0  0  0  0  0  0
  -11.8120   35.2930    0.8610 C   0  0  0  0  0  0  0  0  0  0  0  0
  -12.9470   35.0410    0.0930 C   0  0  0  0  0  0  0  0  0  0  0  0
  -13.6940   36.3530   -0.7600 Cl  0  0  0  0  0  0  0  0  0  0  0  0
  -13.4650   33.7370    0.0250 C   0  0  0  0  0  0  0  0  0  0  0  0
  -14.8840   33.3830   -0.9070 Cl  0  0  0  0  0  0  0  0  0  0  0  0
  -12.8340   32.7050    0.7170 C   0  0  0  0  0  0  0  0  0  0  0  0
   22.1320   29.7080    0.2160 C   0  0  0  0  0  0  0  0  0  0  0  0
   21.8540   28.9890    1.5530 C   0  0  0  0  0  0  0  0  0  0  0  0
   23.3290   30.6660    0.4050 C   0  0  0  0  0  0  0  0  0  0  0  0
   20.9190   30.6320   -0.0500 C   0  0  0  0  0  0  0  0  0  0  0  0
   28.8880   25.5480    0.6220 C   0  0  0  0  0  0  0  0  0  0  0  0
   29.1080   24.9230    1.8440 C   0  0  0  0  0  0  0  0  0  0  0  0
   28.4790   23.3990    4.6540 S   0  0  0  0  0  0  0  0  0  0  0  0
   29.1830   23.4640    6.2200 C   0  0  0  0  0  0  0  0  0  0  0  0
   29.8630   24.5440    6.4790 N   0  0  0  0  0  0  0  0  0  0  0  0
   30.4750   27.2410    4.5560 H   0  0  0  0  0  0  0  0  0  0  0  0
   31.6520   26.5050    5.6710 H   0  0  0  0  0  0  0  0  0  0  0  0
   30.1920   27.2950    6.3130 H   0  0  0  0  0  0  0  0  0  0  0  0
   28.2880   27.4800    3.9050 H   0  0  0  0  0  0  0  0  0  0  0  0
   27.9030   28.5870    1.7420 H   0  0  0  0  0  0  0  0  0  0  0  0
   28.8750   27.1330   -1.5280 H   0  0  0  0  0  0  0  0  0  0  0  0
   28.3760   28.6220   -0.6890 H   0  0  0  0  0  0  0  0  0  0  0  0
   26.1160   27.8690   -0.6990 H   0  0  0  0  0  0  0  0  0  0  0  0
   24.7210   25.4480   -0.9650 H   0  0  0  0  0  0  0  0  0  0  0  0
   24.4100   23.9850   -2.7740 H   0  0  0  0  0  0  0  0  0  0  0  0
   25.3190   25.0500   -3.8730 H   0  0  0  0  0  0  0  0  0  0  0  0
   23.0710   25.3620   -4.7240 H   0  0  0  0  0  0  0  0  0  0  0  0
   22.2380   25.1290   -2.0620 H   0  0  0  0  0  0  0  0  0  0  0  0
   22.3580   27.5070   -3.2820 H   0  0  0  0  0  0  0  0  0  0  0  0
   23.9390   27.5620   -4.0980 H   0  0  0  0  0  0  0  0  0  0  0  0
   22.6180   29.3540   -1.8480 H   0  0  0  0  0  0  0  0  0  0  0  0
   20.4080   28.5480   -1.8600 H   0  0  0  0  0  0  0  0  0  0  0  0
   19.0050   26.8030   -2.1870 H   0  0  0  0  0  0  0  0  0  0  0  0
   19.2990   25.2720   -1.3280 H   0  0  0  0  0  0  0  0  0  0  0  0
   18.4510   27.8740    0.0150 H   0  0  0  0  0  0  0  0  0  0  0  0
   18.6230   26.2820    0.7920 H   0  0  0  0  0  0  0  0  0  0  0  0
   16.2910   26.3730    1.3680 H   0  0  0  0  0  0  0  0  0  0  0  0
   16.0610   27.9180    0.5140 H   0  0  0  0  0  0  0  0  0  0  0  0
   14.6480   25.2710   -0.0040 H   0  0  0  0  0  0  0  0  0  0  0  0
   14.5760   26.6460   -1.1320 H   0  0  0  0  0  0  0  0  0  0  0  0
   12.2310   26.7110   -0.7440 H   0  0  0  0  0  0  0  0  0  0  0  0
   12.2990   25.4340    0.4940 H   0  0  0  0  0  0  0  0  0  0  0  0
   11.3600   28.3070    0.8970 H   0  0  0  0  0  0  0  0  0  0  0  0
   11.5280   27.1040    2.1980 H   0  0  0  0  0  0  0  0  0  0  0  0
    9.1360   27.3480    2.5530 H   0  0  0  0  0  0  0  0  0  0  0  0
    8.9930   28.4550    1.1660 H   0  0  0  0  0  0  0  0  0  0  0  0
    7.5830   25.7900    1.5830 H   0  0  0  0  0  0  0  0  0  0  0  0
    7.6230   26.6290    0.0130 H   0  0  0  0  0  0  0  0  0  0  0  0
    5.2780   26.8280    0.1200 H   0  0  0  0  0  0  0  0  0  0  0  0
    5.1930   26.0980    1.7410 H   0  0  0  0  0  0  0  0  0  0  0  0
    4.3320   28.9310    1.0050 H   0  0  0  0  0  0  0  0  0  0  0  0
    4.2730   28.2260    2.6380 H   0  0  0  0  0  0  0  0  0  0  0  0
    1.8660   28.5860    2.5670 H   0  0  0  0  0  0  0  0  0  0  0  0
    1.9620   29.1780    0.8910 H   0  0  0  0  0  0  0  0  0  0  0  0
    0.3990   26.7720    1.9170 H   0  0  0  0  0  0  0  0  0  0  0  0
    0.6420   27.1260    0.1900 H   0  0  0  0  0  0  0  0  0  0  0  0
   -1.6950   27.3600   -0.0410 H   0  0  0  0  0  0  0  0  0  0  0  0
   -1.9790   27.1120    1.6990 H   0  0  0  0  0  0  0  0  0  0  0  0
   -2.6370   29.6520    0.1430 H   0  0  0  0  0  0  0  0  0  0  0  0
   -2.9440   29.3780    1.8750 H   0  0  0  0  0  0  0  0  0  0  0  0
   -5.3030   29.7200    1.3860 H   0  0  0  0  0  0  0  0  0  0  0  0
   -4.9680   29.8740   -0.3550 H   0  0  0  0  0  0  0  0  0  0  0  0
   -6.7010   27.7350    0.9760 H   0  0  0  0  0  0  0  0  0  0  0  0
   -6.2980   27.7780   -0.7570 H   0  0  0  0  0  0  0  0  0  0  0  0
   -8.5560   26.9440   -0.2430 H   0  0  0  0  0  0  0  0  0  0  0  0
  -10.9520   26.4780   -0.5960 H   0  0  0  0  0  0  0  0  0  0  0  0
  -13.0790   26.1720   -1.3800 H   0  0  0  0  0  0  0  0  0  0  0  0
  -16.2110   26.5260   -2.6380 H   0  0  0  0  0  0  0  0  0  0  0  0
  -16.1150   25.7150   -1.0560 H   0  0  0  0  0  0  0  0  0  0  0  0
  -18.0490   27.6410   -1.6020 H   0  0  0  0  0  0  0  0  0  0  0  0
  -17.3880   27.4050    0.0340 H   0  0  0  0  0  0  0  0  0  0  0  0
  -16.7750   29.6850   -0.2100 H   0  0  0  0  0  0  0  0  0  0  0  0
  -16.7280   29.5830   -1.9870 H   0  0  0  0  0  0  0  0  0  0  0  0
  -13.7830   30.2550   -0.5180 H   0  0  0  0  0  0  0  0  0  0  0  0
  -11.7360   30.6790   -0.8000 H   0  0  0  0  0  0  0  0  0  0  0  0
  -10.0990   32.2530   -0.5450 H   0  0  0  0  0  0  0  0  0  0  0  0
   -8.4520   31.7800   -1.0280 H   0  0  0  0  0  0  0  0  0  0  0  0
   -7.7960   31.8800    1.1580 H   0  0  0  0  0  0  0  0  0  0  0  0
  -11.3190   30.8580    1.7750 H   0  0  0  0  0  0  0  0  0  0  0  0
  -11.3420   31.8250    3.2700 H   0  0  0  0  0  0  0  0  0  0  0  0
  -10.3130   34.4610    2.1500 H   0  0  0  0  0  0  0  0  0  0  0  0
  -11.4150   36.2950    0.9220 H   0  0  0  0  0  0  0  0  0  0  0  0
  -13.2360   31.7040    0.6680 H   0  0  0  0  0  0  0  0  0  0  0  0
   21.7110   29.7290    2.3410 H   0  0  0  0  0  0  0  0  0  0  0  0
   22.7000   28.3490    1.8040 H   0  0  0  0  0  0  0  0  0  0  0  0
   20.9540   28.3810    1.4580 H   0  0  0  0  0  0  0  0  0  0  0  0
   23.1370   31.3250    1.2510 H   0  0  0  0  0  0  0  0  0  0  0  0
   23.4630   31.2630   -0.4970 H   0  0  0  0  0  0  0  0  0  0  0  0
   24.2320   30.0860    0.5940 H   0  0  0  0  0  0  0  0  0  0  0  0
   20.7800   31.3020    0.7980 H   0  0  0  0  0  0  0  0  0  0  0  0
   20.0230   30.0260   -0.1850 H   0  0  0  0  0  0  0  0  0  0  0  0
   21.1000   31.2190   -0.9510 H   0  0  0  0  0  0  0  0  0  0  0  0
   29.0500   25.0030   -0.2960 H   0  0  0  0  0  0  0  0  0  0  0  0
   29.4400   23.8950    1.8650 H   0  0  0  0  0  0  0  0  0  0  0  0
   29.0700   22.6660    6.9390 H   0  0  0  0  0  0  0  0  0  0  0  0
  1  2  1  0  0  0  0
  1 84  1  0  0  0  0
  1 85  1  0  0  0  0
  1 86  1  0  0  0  0
  2  3  2  0  0  0  0
  2 83  1  0  0  0  0
  3  4  1  0  0  0  0
  3 81  1  0  0  0  0
  4  5  1  0  0  0  0
  4 80  2  0  0  0  0
  5  6  2  0  0  0  0
  5 87  1  0  0  0  0
  6  7  1  0  0  0  0
  6 88  1  0  0  0  0
  7  8  1  0  0  0  0
  7 79  2  0  0  0  0
  8  9  1  0  0  0  0
  8 89  1  0  0  0  0
  8 90  1  0  0  0  0
  9 10  1  0  0  0  0
  9 91  1  0  0  0  0
 10 11  2  0  0  0  0
 10 12  1  0  0  0  0
 12 13  1  0  0  0  0
 12 17  1  0  0  0  0
 12 92  1  0  0  0  0
 13 14  1  0  0  0  0
 13 93  1  0  0  0  0
 13 94  1  0  0  0  0
 14 15  1  0  0  0  0
 14 16  1  0  0  0  0
 14 95  1  0  0  0  0
 15 96  1  0  0  0  0
 16 17  1  0  0  0  0
 16 97  1  0  0  0  0
 16 98  1  0  0  0  0
 17 18  1  0  0  0  0
 18 19  2  0  0  0  0
 18 20  1  0  0  0  0
 20 21  1  0  0  0  0
 20 75  1  0  0  0  0
 20 99  1  0  0  0  0
 21 22  1  0  0  0  0
 21100  1  0  0  0  0
 22 23  2  0  0  0  0
 22 24  1  0  0  0  0
 24 25  1  0  0  0  0
 24101  1  0  0  0  0
 24102  1  0  0  0  0
 25 26  1  0  0  0  0
 25103  1  0  0  0  0
 25104  1  0  0  0  0
 26 27  1  0  0  0  0
 27 28  1  0  0  0  0
 27105  1  0  0  0  0
 27106  1  0  0  0  0
 28 29  1  0  0  0  0
 28107  1  0  0  0  0
 28108  1  0  0  0  0
 29 30  1  0  0  0  0
 30 31  1  0  0  0  0
 30109  1  0  0  0  0
 30110  1  0  0  0  0
 31 32  1  0  0  0  0
 31111  1  0  0  0  0
 31112  1  0  0  0  0
 32 33  1  0  0  0  0
 33 34  1  0  0  0  0
 33113  1  0  0  0  0
 33114  1  0  0  0  0
 34 35  1  0  0  0  0
 34115  1  0  0  0  0
 34116  1  0  0  0  0
 35 36  1  0  0  0  0
 36 37  1  0  0  0  0
 36117  1  0  0  0  0
 36118  1  0  0  0  0
 37 38  1  0  0  0  0
 37119  1  0  0  0  0
 37120  1  0  0  0  0
 38 39  1  0  0  0  0
 39 40  1  0  0  0  0
 39121  1  0  0  0  0
 39122  1  0  0  0  0
 40 41  1  0  0  0  0
 40123  1  0  0  0  0
 40124  1  0  0  0  0
 41 42  1  0  0  0  0
 42 43  1  0  0  0  0
 42125  1  0  0  0  0
 42126  1  0  0  0  0
 43 44  1  0  0  0  0
 43127  1  0  0  0  0
 43128  1  0  0  0  0
 44 45  1  0  0  0  0
 45 46  1  0  0  0  0
 45129  1  0  0  0  0
 45130  1  0  0  0  0
 46 47  1  0  0  0  0
 46131  1  0  0  0  0
 46132  1  0  0  0  0
 47 48  1  0  0  0  0
 48 49  1  0  0  0  0
 48 61  2  0  0  0  0
 49 50  2  0  0  0  0
 49133  1  0  0  0  0
 50 51  1  0  0  0  0
 50134  1  0  0  0  0
 51 52  1  0  0  0  0
 51 60  2  0  0  0  0
 52 53  2  0  0  0  0
 52 59  1  0  0  0  0
 53 54  1  0  0  0  0
 53135  1  0  0  0  0
 54 55  1  0  0  0  0
 54 58  2  0  0  0  0
 55 56  1  0  0  0  0
 55136  1  0  0  0  0
 55137  1  0  0  0  0
 56 57  1  0  0  0  0
 56138  1  0  0  0  0
 56139  1  0  0  0  0
 57 58  1  0  0  0  0
 57140  1  0  0  0  0
 57141  1  0  0  0  0
 58 59  1  0  0  0  0
 59142  1  0  0  0  0
 60 61  1  0  0  0  0
 60143  1  0  0  0  0
 61 62  1  0  0  0  0
 62 63  1  0  0  0  0
 62144  1  0  0  0  0
 62145  1  0  0  0  0
 63 64  1  0  0  0  0
 63146  1  0  0  0  0
 64 65  2  0  0  0  0
 64 66  1  0  0  0  0
 66 67  1  0  0  0  0
 66147  1  0  0  0  0
 66148  1  0  0  0  0
 67 68  2  0  0  0  0
 67 74  1  0  0  0  0
 68 69  1  0  0  0  0
 68149  1  0  0  0  0
 69 70  2  0  0  0  0
 69150  1  0  0  0  0
 70 71  1  0  0  0  0
 70 72  1  0  0  0  0
 72 73  1  0  0  0  0
 72 74  2  0  0  0  0
 74151  1  0  0  0  0
 75 76  1  0  0  0  0
 75 77  1  0  0  0  0
 75 78  1  0  0  0  0
 76152  1  0  0  0  0
 76153  1  0  0  0  0
 76154  1  0  0  0  0
 77155  1  0  0  0  0
 77156  1  0  0  0  0
 77157  1  0  0  0  0
 78158  1  0  0  0  0
 78159  1  0  0  0  0
 78160  1  0  0  0  0
 79 80  1  0  0  0  0
 79161  1  0  0  0  0
 80162  1  0  0  0  0
 81 82  1  0  0  0  0
 82 83  2  0  0  0  0
 82163  1  0  0  0  0
M  CHG  1  54   1
M  END
>  <Compound ID>
2299

>  <Uniprot>
P61964

>  <Target>
WDR5

>  <E3 ligase>
VHL

>  <Dmax (%)>
N.D.

>  <Article DOI>
10.1021/acs.jmedchem.1c00146

>  <Molecular Weight>
1209.301

>  <Exact Mass>
1207.4834

>  <XLogP3>
4.9499998

>  <Heavy Atom Count>
83

>  <Ring Count>
7

>  <Hydrogen Bond Acceptor Count>
17

>  <Hydrogen Bond Donor Count>
4

>  <Rotatable Bond Count>
36

>  <Topological Polar Surface Area>
232.39

>  <Molecular Formula>
C60H79Cl2N7O13S

>  <InChI>
InChI=1S/C60H79Cl2N7O13S/c1-41-56(83-40-65-41)44-10-7-42(8-11-44)36-64-58(73)51-35-47(70)38-69(51)59(74)57(60(2,3)4)67-54(71)15-17-75-18-19-76-20-21-77-22-23-78-24-25-79-26-27-80-28-29-81-30-31-82-52-14-12-45(50-39-68-16-5-6-53(68)66-50)34-46(52)37-63-55(72)33-43-9-13-48(61)49(62)32-43/h7-14,32,34,39-40,47,51,57,70H,5-6,15-31,33,35-38H2,1-4H3,(H,63,72)(H,64,73)(H,67,71)/t47-,51+,57-/m1/s1

>  <InChI Key>
CUEHDGXRMAWGBL-NSONYEDRSA-N

$$$$
