796
  MOE2018           3D

126132  0  0  1  0  0  0  0  0999 V2000
    2.9630   -0.2590   -0.0360 C   0  0  0  0  0  0  0  0  0  0  0  0
    4.0200   -0.5630    0.9990 C   0  0  0  0  0  0  0  0  0  0  0  0
    4.2520   -1.7970    1.5520 C   0  0  0  0  0  0  0  0  0  0  0  0
    3.5660   -3.0610    1.3140 C   0  0  0  0  0  0  0  0  0  0  0  0
    2.1670   -3.1410    1.3590 C   0  0  0  0  0  0  0  0  0  0  0  0
    1.5120   -4.3470    1.1300 C   0  0  0  0  0  0  0  0  0  0  0  0
    2.2370   -5.5050    0.8560 C   0  0  0  0  0  0  0  0  0  0  0  0
    1.5240   -6.8140    0.5910 C   0  0  0  0  0  0  0  0  0  0  0  0
    1.3990   -6.8490   -0.8630 N   0  0  0  0  0  0  0  0  0  0  0  0
    1.3380   -7.9240   -1.6490 C   0  0  0  0  0  0  0  0  0  0  0  0
    1.0970   -7.7290   -2.8360 O   0  0  0  0  0  0  0  0  0  0  0  0
    1.6240   -9.3640   -1.1250 C   0  0  2  0  0  0  0  0  0  0  0  0
    2.6680  -10.1080   -1.9770 C   0  0  0  0  0  0  0  0  0  0  0  0
    2.1580  -11.5410   -2.0560 C   0  0  1  0  0  0  0  0  0  0  0  0
    2.6070  -12.2700   -0.9280 O   0  0  0  0  0  0  0  0  0  0  0  0
    0.6440  -11.3420   -2.0290 C   0  0  0  0  0  0  0  0  0  0  0  0
    0.4360  -10.2290   -1.1080 N   0  0  0  0  0  0  0  0  0  0  0  0
   -0.4610  -10.1400   -0.1040 C   0  0  0  0  0  0  0  0  0  0  0  0
   -0.3250   -9.2650    0.7540 O   0  0  0  0  0  0  0  0  0  0  0  0
   -1.6380  -11.1590    0.0110 C   0  0  1  0  0  0  0  0  0  0  0  0
   -1.5680  -11.9120    1.2710 N   0  0  0  0  0  0  0  0  0  0  0  0
   -0.5290  -12.7300    1.5840 C   0  0  0  0  0  0  0  0  0  0  0  0
    0.3310  -12.9290    0.7380 O   0  0  0  0  0  0  0  0  0  0  0  0
   -0.4900  -13.3300    2.9980 C   0  0  0  0  0  0  0  0  0  0  0  0
   -1.6710  -13.2870    3.6870 F   0  0  0  0  0  0  0  0  0  0  0  0
    0.7540  -13.1360    3.8070 C   0  0  0  0  0  0  0  0  0  0  0  0
    0.3920  -14.5090    3.2670 C   0  0  0  0  0  0  0  0  0  0  0  0
   -3.0520  -10.5200   -0.1760 C   0  0  0  0  0  0  0  0  0  0  0  0
   -3.4640   -9.5470    0.9490 C   0  0  0  0  0  0  0  0  0  0  0  0
   -4.1280  -11.6260   -0.2430 C   0  0  0  0  0  0  0  0  0  0  0  0
   -3.1170   -9.7550   -1.5130 C   0  0  0  0  0  0  0  0  0  0  0  0
    3.6310   -5.4270    0.8130 C   0  0  0  0  0  0  0  0  0  0  0  0
    4.3350   -6.5790    0.5310 O   0  0  0  0  0  0  0  0  0  0  0  0
    5.7070   -6.6140    0.0720 C   0  0  0  0  0  0  0  0  0  0  0  0
    5.9280   -8.0500   -0.3900 C   0  0  0  0  0  0  0  0  0  0  0  0
    7.2260   -8.1660   -0.9500 O   0  0  0  0  0  0  0  0  0  0  0  0
    7.5230   -9.4980   -1.3560 C   0  0  0  0  0  0  0  0  0  0  0  0
    8.9440   -9.5680   -1.9180 C   0  0  0  0  0  0  0  0  0  0  0  0
    9.8750   -9.7970   -0.8680 O   0  0  0  0  0  0  0  0  0  0  0  0
   11.2190   -9.7470   -1.3210 C   0  0  0  0  0  0  0  0  0  0  0  0
   12.0800   -9.9930   -0.0730 C   0  0  0  0  0  0  0  0  0  0  0  0
   13.4900   -9.9450   -0.5310 N   0  3  0  0  0  0  0  0  0  0  0  0
   14.0050   -8.5430   -0.5010 C   0  0  0  0  0  0  0  0  0  0  0  0
   15.4180   -8.5510   -1.1330 C   0  0  0  0  0  0  0  0  0  0  0  0
   16.2850   -9.4220   -0.2960 N   0  0  0  0  0  0  0  0  0  0  0  0
   17.6650   -9.3330   -0.6210 C   0  0  0  0  0  0  0  0  0  0  0  0
   18.4850   -8.6890    0.2890 C   0  0  0  0  0  0  0  0  0  0  0  0
   19.8470   -8.5710    0.0100 C   0  0  0  0  0  0  0  0  0  0  0  0
   20.7610   -7.9140    0.9440 C   0  0  0  0  0  0  0  0  0  0  0  0
   20.3810   -6.7360    1.6070 C   0  0  0  0  0  0  0  0  0  0  0  0
   21.2300   -6.1210    2.5230 C   0  0  0  0  0  0  0  0  0  0  0  0
   22.4820   -6.6680    2.7980 C   0  0  0  0  0  0  0  0  0  0  0  0
   22.8870   -7.8290    2.1490 C   0  0  0  0  0  0  0  0  0  0  0  0
   22.0380   -8.4340    1.2300 C   0  0  0  0  0  0  0  0  0  0  0  0
   22.4910   -9.5600    0.6090 O   0  0  0  0  0  0  0  0  0  0  0  0
   20.3450   -9.0830   -1.1430 N   0  0  0  0  0  0  0  0  0  0  0  0
   19.5720   -9.7110   -2.0310 N   0  0  0  0  0  0  0  0  0  0  0  0
   18.2650   -9.8460   -1.7960 C   0  0  0  0  0  0  0  0  0  0  0  0
   17.5560  -10.4950   -2.7850 N   0  0  0  0  0  0  0  0  0  0  0  0
   15.7610  -10.8180   -0.2420 C   0  0  0  0  0  0  0  0  0  0  0  0
   14.3420  -10.7680    0.3730 C   0  0  0  0  0  0  0  0  0  0  0  0
    4.2940   -4.2230    1.0430 C   0  0  0  0  0  0  0  0  0  0  0  0
    5.5580   -1.6950    2.6600 S   0  0  0  0  0  0  0  0  0  0  0  0
    5.6780   -0.0150    2.3190 C   0  0  0  0  0  0  0  0  0  0  0  0
    4.8240    0.4360    1.4450 N   0  0  0  0  0  0  0  0  0  0  0  0
    2.4160   -1.1710   -0.2750 H   0  0  0  0  0  0  0  0  0  0  0  0
    3.4380    0.1270   -0.9380 H   0  0  0  0  0  0  0  0  0  0  0  0
    2.2720    0.4860    0.3580 H   0  0  0  0  0  0  0  0  0  0  0  0
    1.5900   -2.2540    1.5740 H   0  0  0  0  0  0  0  0  0  0  0  0
    0.4330   -4.3860    1.1650 H   0  0  0  0  0  0  0  0  0  0  0  0
    0.5430   -6.8260    1.0660 H   0  0  0  0  0  0  0  0  0  0  0  0
    2.1130   -7.6580    0.9510 H   0  0  0  0  0  0  0  0  0  0  0  0
    1.3530   -5.9540   -1.3280 H   0  0  0  0  0  0  0  0  0  0  0  0
    1.9860   -9.1930   -0.1110 H   0  0  0  0  0  0  0  0  0  0  0  0
    3.6470  -10.0750   -1.4990 H   0  0  0  0  0  0  0  0  0  0  0  0
    2.7340   -9.6690   -2.9720 H   0  0  0  0  0  0  0  0  0  0  0  0
    2.4990  -12.1000   -2.9270 H   0  0  0  0  0  0  0  0  0  0  0  0
    2.3190  -11.7980   -0.1440 H   0  0  0  0  0  0  0  0  0  0  0  0
    0.1440  -12.2400   -1.6660 H   0  0  0  0  0  0  0  0  0  0  0  0
    0.2710  -11.0940   -3.0230 H   0  0  0  0  0  0  0  0  0  0  0  0
   -1.5090  -11.8490   -0.8230 H   0  0  0  0  0  0  0  0  0  0  0  0
   -2.3250  -11.8170    1.9330 H   0  0  0  0  0  0  0  0  0  0  0  0
    1.5990  -12.5890    3.3880 H   0  0  0  0  0  0  0  0  0  0  0  0
    0.6850  -12.9340    4.8760 H   0  0  0  0  0  0  0  0  0  0  0  0
    0.0620  -15.2940    3.9470 H   0  0  0  0  0  0  0  0  0  0  0  0
    0.9760  -14.9500    2.4590 H   0  0  0  0  0  0  0  0  0  0  0  0
   -4.4570   -9.1500    0.7400 H   0  0  0  0  0  0  0  0  0  0  0  0
   -2.7480   -8.7270    1.0000 H   0  0  0  0  0  0  0  0  0  0  0  0
   -3.4780  -10.0770    1.9010 H   0  0  0  0  0  0  0  0  0  0  0  0
   -5.1100  -11.1700   -0.3730 H   0  0  0  0  0  0  0  0  0  0  0  0
   -4.1150  -12.2020    0.6820 H   0  0  0  0  0  0  0  0  0  0  0  0
   -3.9190  -12.2860   -1.0850 H   0  0  0  0  0  0  0  0  0  0  0  0
   -4.1070   -9.3140   -1.6320 H   0  0  0  0  0  0  0  0  0  0  0  0
   -2.9250  -10.4440   -2.3360 H   0  0  0  0  0  0  0  0  0  0  0  0
   -2.3650   -8.9660   -1.5170 H   0  0  0  0  0  0  0  0  0  0  0  0
    5.8530   -5.9180   -0.7540 H   0  0  0  0  0  0  0  0  0  0  0  0
    6.3900   -6.3630    0.8840 H   0  0  0  0  0  0  0  0  0  0  0  0
    5.1820   -8.3100   -1.1410 H   0  0  0  0  0  0  0  0  0  0  0  0
    5.8370   -8.7250    0.4610 H   0  0  0  0  0  0  0  0  0  0  0  0
    7.4410  -10.1640   -0.4970 H   0  0  0  0  0  0  0  0  0  0  0  0
    6.8150   -9.8080   -2.1250 H   0  0  0  0  0  0  0  0  0  0  0  0
    9.1830   -8.6260   -2.4120 H   0  0  0  0  0  0  0  0  0  0  0  0
    9.0070  -10.3830   -2.6390 H   0  0  0  0  0  0  0  0  0  0  0  0
   11.3990  -10.5210   -2.0670 H   0  0  0  0  0  0  0  0  0  0  0  0
   11.4400   -8.7700   -1.7510 H   0  0  0  0  0  0  0  0  0  0  0  0
   11.8540  -10.9690    0.3560 H   0  0  0  0  0  0  0  0  0  0  0  0
   11.8970   -9.2180    0.6720 H   0  0  0  0  0  0  0  0  0  0  0  0
   13.5240  -10.3020   -1.4750 H   0  0  0  0  0  0  0  0  0  0  0  0
   13.3450   -7.8920   -1.0740 H   0  0  0  0  0  0  0  0  0  0  0  0
   14.0600   -8.1890    0.5280 H   0  0  0  0  0  0  0  0  0  0  0  0
   15.8200   -7.5380   -1.1550 H   0  0  0  0  0  0  0  0  0  0  0  0
   15.3680   -8.9440   -2.1490 H   0  0  0  0  0  0  0  0  0  0  0  0
   18.0760   -8.2830    1.2030 H   0  0  0  0  0  0  0  0  0  0  0  0
   19.4140   -6.3000    1.4030 H   0  0  0  0  0  0  0  0  0  0  0  0
   20.9170   -5.2160    3.0230 H   0  0  0  0  0  0  0  0  0  0  0  0
   23.1360   -6.1910    3.5130 H   0  0  0  0  0  0  0  0  0  0  0  0
   23.8560   -8.2580    2.3580 H   0  0  0  0  0  0  0  0  0  0  0  0
   21.8790   -9.9510   -0.0190 H   0  0  0  0  0  0  0  0  0  0  0  0
   18.0310  -10.8280   -3.6120 H   0  0  0  0  0  0  0  0  0  0  0  0
   16.5610  -10.6370   -2.6830 H   0  0  0  0  0  0  0  0  0  0  0  0
   15.7150  -11.2360   -1.2480 H   0  0  0  0  0  0  0  0  0  0  0  0
   16.4120  -11.4350    0.3780 H   0  0  0  0  0  0  0  0  0  0  0  0
   14.3810  -10.3130    1.3630 H   0  0  0  0  0  0  0  0  0  0  0  0
   13.9350  -11.7760    0.4520 H   0  0  0  0  0  0  0  0  0  0  0  0
    5.3730   -4.1880    1.0120 H   0  0  0  0  0  0  0  0  0  0  0  0
    6.4090    0.6210    2.7950 H   0  0  0  0  0  0  0  0  0  0  0  0
  1  2  1  0  0  0  0
  1 66  1  0  0  0  0
  1 67  1  0  0  0  0
  1 68  1  0  0  0  0
  2  3  2  0  0  0  0
  2 65  1  0  0  0  0
  3  4  1  0  0  0  0
  3 63  1  0  0  0  0
  4  5  2  0  0  0  0
  4 62  1  0  0  0  0
  5  6  1  0  0  0  0
  5 69  1  0  0  0  0
  6  7  2  0  0  0  0
  6 70  1  0  0  0  0
  7  8  1  0  0  0  0
  7 32  1  0  0  0  0
  8  9  1  0  0  0  0
  8 71  1  0  0  0  0
  8 72  1  0  0  0  0
  9 10  1  0  0  0  0
  9 73  1  0  0  0  0
 10 11  2  0  0  0  0
 10 12  1  0  0  0  0
 12 13  1  0  0  0  0
 12 17  1  0  0  0  0
 12 74  1  0  0  0  0
 13 14  1  0  0  0  0
 13 75  1  0  0  0  0
 13 76  1  0  0  0  0
 14 15  1  0  0  0  0
 14 16  1  0  0  0  0
 14 77  1  0  0  0  0
 15 78  1  0  0  0  0
 16 17  1  0  0  0  0
 16 79  1  0  0  0  0
 16 80  1  0  0  0  0
 17 18  1  0  0  0  0
 18 19  2  0  0  0  0
 18 20  1  0  0  0  0
 20 21  1  0  0  0  0
 20 28  1  0  0  0  0
 20 81  1  0  0  0  0
 21 22  1  0  0  0  0
 21 82  1  0  0  0  0
 22 23  2  0  0  0  0
 22 24  1  0  0  0  0
 24 25  1  0  0  0  0
 24 26  1  0  0  0  0
 24 27  1  0  0  0  0
 26 27  1  0  0  0  0
 26 83  1  0  0  0  0
 26 84  1  0  0  0  0
 27 85  1  0  0  0  0
 27 86  1  0  0  0  0
 28 29  1  0  0  0  0
 28 30  1  0  0  0  0
 28 31  1  0  0  0  0
 29 87  1  0  0  0  0
 29 88  1  0  0  0  0
 29 89  1  0  0  0  0
 30 90  1  0  0  0  0
 30 91  1  0  0  0  0
 30 92  1  0  0  0  0
 31 93  1  0  0  0  0
 31 94  1  0  0  0  0
 31 95  1  0  0  0  0
 32 33  1  0  0  0  0
 32 62  2  0  0  0  0
 33 34  1  0  0  0  0
 34 35  1  0  0  0  0
 34 96  1  0  0  0  0
 34 97  1  0  0  0  0
 35 36  1  0  0  0  0
 35 98  1  0  0  0  0
 35 99  1  0  0  0  0
 36 37  1  0  0  0  0
 37 38  1  0  0  0  0
 37100  1  0  0  0  0
 37101  1  0  0  0  0
 38 39  1  0  0  0  0
 38102  1  0  0  0  0
 38103  1  0  0  0  0
 39 40  1  0  0  0  0
 40 41  1  0  0  0  0
 40104  1  0  0  0  0
 40105  1  0  0  0  0
 41 42  1  0  0  0  0
 41106  1  0  0  0  0
 41107  1  0  0  0  0
 42 43  1  0  0  0  0
 42 61  1  0  0  0  0
 42108  1  0  0  0  0
 43 44  1  0  0  0  0
 43109  1  0  0  0  0
 43110  1  0  0  0  0
 44 45  1  0  0  0  0
 44111  1  0  0  0  0
 44112  1  0  0  0  0
 45 46  1  0  0  0  0
 45 60  1  0  0  0  0
 46 47  2  0  0  0  0
 46 58  1  0  0  0  0
 47 48  1  0  0  0  0
 47113  1  0  0  0  0
 48 49  1  0  0  0  0
 48 56  2  0  0  0  0
 49 50  1  0  0  0  0
 49 54  2  0  0  0  0
 50 51  2  0  0  0  0
 50114  1  0  0  0  0
 51 52  1  0  0  0  0
 51115  1  0  0  0  0
 52 53  2  0  0  0  0
 52116  1  0  0  0  0
 53 54  1  0  0  0  0
 53117  1  0  0  0  0
 54 55  1  0  0  0  0
 55118  1  0  0  0  0
 56 57  1  0  0  0  0
 57 58  2  0  0  0  0
 58 59  1  0  0  0  0
 59119  1  0  0  0  0
 59120  1  0  0  0  0
 60 61  1  0  0  0  0
 60121  1  0  0  0  0
 60122  1  0  0  0  0
 61123  1  0  0  0  0
 61124  1  0  0  0  0
 62125  1  0  0  0  0
 63 64  1  0  0  0  0
 64 65  2  0  0  0  0
 64126  1  0  0  0  0
M  CHG  1  42   1
M  END
>  <Compound ID>
796

>  <Uniprot>
P51531

>  <Target>
SMARCA2

>  <E3 ligase>
VHL

>  <PDB>
6HAY

>  <DC50 (nM)>
300

>  <Dmax (%)>
65

>  <Assay (DC50/Dmax)>
Degradation of SMARCA2 in MV-4-11 cells after 18 h treatment

>  <IC50 (nM, Protac to Target)>
2400/600

>  <Assay (Protac to Target, IC50)>
IC50 of SMARCA2 BD was tested by TR-FRET/AlphaLISA

>  <Kd (nM, Protac to Target)>
4500

>  <Assay (Protac to Target, Kd)>
SPR in SMARCA2 BD

>  <Kd (nM, Protac to E3)>
234/98

>  <Assay (Protac to E3, Kd)>
ITC/SPR

>  <Ki (nM, Protac to E3)>
210

>  <Assay (Protac to E3, Ki)>
PF

>  <delta G (kcal/mol, Protac to E3)>
-37.900002

>  <delta H (kcal/mol, Protac to E3)>
-21

>  <-T*delta S (kcal/mol, Protac to E3)>
-17

>  <Assay (Protac to E3, G/H/-TS)>
ITC

>  <IC50 (nM, Ternary complex)>
205/120

>  <Assay (Ternary complex, IC50)>
TR-FRET/AlphaLISA

>  <Kd (nM, Ternary complex)>
49

>  <Assay (Ternary complex, Kd)>
ITC

>  <Ki (nM, Ternary complex)>
48

>  <Assay (Ternary complex, Ki)>
PF

>  <delta G (kcal/mol, Ternary complex)>
-41.799999

>  <delta H (kcal/mol, Ternary complex)>
-27

>  <-T*delta S (kcal/mol, Ternary complex)>
-15

>  <Assay (Ternary complex, G/H/-TS)>
ITC between VHL and PROTAC:SMARCA2

>  <Article DOI>
10.1038/s41589-019-0294-6

>  <Molecular Weight>
918.10602

>  <Exact Mass>
917.42694

>  <XLogP3>
3.22

>  <Heavy Atom Count>
65

>  <Ring Count>
7

>  <Hydrogen Bond Acceptor Count>
15

>  <Hydrogen Bond Donor Count>
5

>  <Rotatable Bond Count>
19

>  <Topological Polar Surface Area>
217.83

>  <Molecular Formula>
C46H60FN9O8S

>  <InChI>
InChI=1S/C46H60FN9O8S/c1-29-39(65-28-50-29)30-9-10-31(26-49-42(59)36-24-32(57)27-56(36)43(60)40(45(2,3)4)51-44(61)46(47)11-12-46)38(23-30)64-22-21-63-20-19-62-18-17-54-13-15-55(16-14-54)35-25-34(52-53-41(35)48)33-7-5-6-8-37(33)58/h5-10,23,25,28,32,36,40,57-58H,11-22,24,26-27H2,1-4H3,(H2,48,53)(H,49,59)(H,51,61)/t32-,36+,40-/m1/s1

>  <InChI Key>
QCULBRPVCWJUKY-OUMVKTTMSA-N

$$$$
797
  MOE2018           3D

125132  0  0  1  0  0  0  0  0999 V2000
    1.9220    0.0010   -1.5390 C   0  0  0  0  0  0  0  0  0  0  0  0
    2.0480   -0.9710   -2.6880 C   0  0  0  0  0  0  0  0  0  0  0  0
    1.9480   -2.3350   -2.5800 C   0  0  0  0  0  0  0  0  0  0  0  0
    1.6910   -3.1500   -1.4000 C   0  0  0  0  0  0  0  0  0  0  0  0
    0.6070   -2.8710   -0.5580 C   0  0  0  0  0  0  0  0  0  0  0  0
    0.3720   -3.6370    0.5790 C   0  0  0  0  0  0  0  0  0  0  0  0
    1.2120   -4.7000    0.9050 C   0  0  0  0  0  0  0  0  0  0  0  0
    0.9370   -5.5170    2.1510 C   0  0  0  0  0  0  0  0  0  0  0  0
   -0.0540   -6.4850    1.7110 N   0  0  0  0  0  0  0  0  0  0  0  0
   -1.2540   -6.6570    2.2670 C   0  0  0  0  0  0  0  0  0  0  0  0
   -1.5800   -6.0210    3.2680 O   0  0  0  0  0  0  0  0  0  0  0  0
   -2.1950   -7.7400    1.6580 C   0  0  2  0  0  0  0  0  0  0  0  0
   -3.2850   -8.2320    2.6250 C   0  0  0  0  0  0  0  0  0  0  0  0
   -3.4960   -9.6940    2.2540 C   0  0  1  0  0  0  0  0  0  0  0  0
   -4.3970   -9.8010    1.1670 O   0  0  0  0  0  0  0  0  0  0  0  0
   -2.0850  -10.1170    1.8500 C   0  0  0  0  0  0  0  0  0  0  0  0
   -1.5290   -8.9590    1.1500 N   0  0  0  0  0  0  0  0  0  0  0  0
   -0.8850   -8.9660   -0.0360 C   0  0  0  0  0  0  0  0  0  0  0  0
   -0.7200   -7.9060   -0.6390 O   0  0  0  0  0  0  0  0  0  0  0  0
   -0.3310  -10.2890   -0.6510 C   0  0  1  0  0  0  0  0  0  0  0  0
   -0.9210  -10.5420   -1.9720 N   0  0  0  0  0  0  0  0  0  0  0  0
   -2.2550  -10.7350   -2.1490 C   0  0  0  0  0  0  0  0  0  0  0  0
   -2.9640  -10.8330   -1.1560 O   0  0  0  0  0  0  0  0  0  0  0  0
   -2.7890  -10.7960   -3.5880 C   0  0  0  0  0  0  0  0  0  0  0  0
   -1.8360  -10.9120   -4.5630 F   0  0  0  0  0  0  0  0  0  0  0  0
   -4.0940  -11.4790   -3.8530 C   0  0  0  0  0  0  0  0  0  0  0  0
   -3.9860   -9.9660   -3.9300 C   0  0  0  0  0  0  0  0  0  0  0  0
    1.2300  -10.3500   -0.7080 C   0  0  0  0  0  0  0  0  0  0  0  0
    1.8770   -9.3240   -1.6630 C   0  0  0  0  0  0  0  0  0  0  0  0
    1.8200  -10.1220    0.6980 C   0  0  0  0  0  0  0  0  0  0  0  0
    1.6860  -11.7540   -1.1600 C   0  0  0  0  0  0  0  0  0  0  0  0
    2.2830   -4.9930    0.0550 C   0  0  0  0  0  0  0  0  0  0  0  0
    3.1040   -6.0590    0.3800 O   0  0  0  0  0  0  0  0  0  0  0  0
    4.3370   -6.3740   -0.3110 C   0  0  0  0  0  0  0  0  0  0  0  0
    5.0080   -7.4660    0.5240 C   0  0  0  0  0  0  0  0  0  0  0  0
    6.3590   -7.6990   -0.1210 C   0  0  0  0  0  0  0  0  0  0  0  0
    7.4550   -6.9240    0.2550 C   0  0  0  0  0  0  0  0  0  0  0  0
    8.6920   -7.1110   -0.3550 C   0  0  0  0  0  0  0  0  0  0  0  0
    8.8500   -8.0760   -1.3490 C   0  0  0  0  0  0  0  0  0  0  0  0
   10.1940   -8.2530   -2.0380 C   0  0  0  0  0  0  0  0  0  0  0  0
   10.6420   -9.6440   -1.7980 N   0  3  0  0  0  0  0  0  0  0  0  0
   11.8610   -9.9100   -2.6170 C   0  0  0  0  0  0  0  0  0  0  0  0
   12.2450  -11.3960   -2.4320 C   0  0  0  0  0  0  0  0  0  0  0  0
   12.5700  -11.5840   -0.9930 N   0  0  0  0  0  0  0  0  0  0  0  0
   13.2590  -12.7840   -0.6700 C   0  0  0  0  0  0  0  0  0  0  0  0
   14.4160  -12.6550    0.0760 C   0  0  0  0  0  0  0  0  0  0  0  0
   15.1360  -13.7990    0.4180 C   0  0  0  0  0  0  0  0  0  0  0  0
   16.3640  -13.7150    1.2080 C   0  0  0  0  0  0  0  0  0  0  0  0
   17.2980  -12.6930    0.9700 C   0  0  0  0  0  0  0  0  0  0  0  0
   18.4510  -12.5810    1.7430 C   0  0  0  0  0  0  0  0  0  0  0  0
   18.7010  -13.4900    2.7690 C   0  0  0  0  0  0  0  0  0  0  0  0
   17.7990  -14.5180    3.0180 C   0  0  0  0  0  0  0  0  0  0  0  0
   16.6540  -14.6290    2.2390 C   0  0  0  0  0  0  0  0  0  0  0  0
   15.8110  -15.6660    2.5130 O   0  0  0  0  0  0  0  0  0  0  0  0
   14.6870  -15.0180    0.0250 N   0  0  0  0  0  0  0  0  0  0  0  0
   13.5670  -15.1650   -0.6870 N   0  0  0  0  0  0  0  0  0  0  0  0
   12.8570  -14.0900   -1.0360 C   0  0  0  0  0  0  0  0  0  0  0  0
   11.7010  -14.3540   -1.7390 N   0  0  0  0  0  0  0  0  0  0  0  0
   11.3750  -11.3270   -0.1510 C   0  0  0  0  0  0  0  0  0  0  0  0
   10.9790   -9.8440   -0.3530 C   0  0  0  0  0  0  0  0  0  0  0  0
    7.7550   -8.8570   -1.7170 C   0  0  0  0  0  0  0  0  0  0  0  0
    6.5170   -8.6690   -1.1090 C   0  0  0  0  0  0  0  0  0  0  0  0
    2.5210   -4.2300   -1.0880 C   0  0  0  0  0  0  0  0  0  0  0  0
    2.1780   -3.0540   -4.1200 S   0  0  0  0  0  0  0  0  0  0  0  0
    2.3660   -1.4840   -4.7920 C   0  0  0  0  0  0  0  0  0  0  0  0
    2.2770   -0.5020   -3.9420 N   0  0  0  0  0  0  0  0  0  0  0  0
    1.7410   -0.5490   -0.6160 H   0  0  0  0  0  0  0  0  0  0  0  0
    1.0900    0.6790   -1.7270 H   0  0  0  0  0  0  0  0  0  0  0  0
    2.8440    0.5740   -1.4450 H   0  0  0  0  0  0  0  0  0  0  0  0
   -0.0550   -2.0510   -0.7950 H   0  0  0  0  0  0  0  0  0  0  0  0
   -0.4700   -3.4060    1.2150 H   0  0  0  0  0  0  0  0  0  0  0  0
    0.5410   -4.8890    2.9490 H   0  0  0  0  0  0  0  0  0  0  0  0
    1.8420   -6.0160    2.4970 H   0  0  0  0  0  0  0  0  0  0  0  0
    0.1840   -7.0720    0.9240 H   0  0  0  0  0  0  0  0  0  0  0  0
   -2.6220   -7.1850    0.8230 H   0  0  0  0  0  0  0  0  0  0  0  0
   -4.2050   -7.6640    2.4890 H   0  0  0  0  0  0  0  0  0  0  0  0
   -2.9520   -8.1420    3.6590 H   0  0  0  0  0  0  0  0  0  0  0  0
   -3.9250  -10.3060    3.0480 H   0  0  0  0  0  0  0  0  0  0  0  0
   -4.0470   -9.2710    0.4470 H   0  0  0  0  0  0  0  0  0  0  0  0
   -2.1190  -10.9840    1.1900 H   0  0  0  0  0  0  0  0  0  0  0  0
   -1.4890  -10.3550    2.7310 H   0  0  0  0  0  0  0  0  0  0  0  0
   -0.6340  -11.0860    0.0280 H   0  0  0  0  0  0  0  0  0  0  0  0
   -0.3140  -10.5740   -2.7780 H   0  0  0  0  0  0  0  0  0  0  0  0
   -4.2300  -12.0640   -4.7630 H   0  0  0  0  0  0  0  0  0  0  0  0
   -4.6420  -11.9470   -3.0350 H   0  0  0  0  0  0  0  0  0  0  0  0
   -4.4560   -9.3450   -3.1670 H   0  0  0  0  0  0  0  0  0  0  0  0
   -4.0440   -9.4630   -4.8950 H   0  0  0  0  0  0  0  0  0  0  0  0
    2.9610   -9.4380   -1.6390 H   0  0  0  0  0  0  0  0  0  0  0  0
    1.6110   -8.3150   -1.3470 H   0  0  0  0  0  0  0  0  0  0  0  0
    1.5160   -9.4940   -2.6770 H   0  0  0  0  0  0  0  0  0  0  0  0
    2.9080  -10.1660    0.6470 H   0  0  0  0  0  0  0  0  0  0  0  0
    1.4560  -10.8950    1.3750 H   0  0  0  0  0  0  0  0  0  0  0  0
    1.5130   -9.1430    1.0660 H   0  0  0  0  0  0  0  0  0  0  0  0
    2.7750  -11.7880   -1.1970 H   0  0  0  0  0  0  0  0  0  0  0  0
    1.2820  -11.9660   -2.1500 H   0  0  0  0  0  0  0  0  0  0  0  0
    1.3230  -12.4990   -0.4520 H   0  0  0  0  0  0  0  0  0  0  0  0
    4.1270   -6.7390   -1.3170 H   0  0  0  0  0  0  0  0  0  0  0  0
    4.9760   -5.4930   -0.3700 H   0  0  0  0  0  0  0  0  0  0  0  0
    5.1310   -7.1350    1.5550 H   0  0  0  0  0  0  0  0  0  0  0  0
    4.4140   -8.3800    0.5040 H   0  0  0  0  0  0  0  0  0  0  0  0
    7.3440   -6.1740    1.0240 H   0  0  0  0  0  0  0  0  0  0  0  0
    9.5350   -6.5050   -0.0570 H   0  0  0  0  0  0  0  0  0  0  0  0
   10.9190   -7.5530   -1.6240 H   0  0  0  0  0  0  0  0  0  0  0  0
   10.0890   -8.0760   -3.1080 H   0  0  0  0  0  0  0  0  0  0  0  0
    9.8970  -10.2760   -2.0540 H   0  0  0  0  0  0  0  0  0  0  0  0
   11.6520   -9.7100   -3.6680 H   0  0  0  0  0  0  0  0  0  0  0  0
   12.6790   -9.2720   -2.2820 H   0  0  0  0  0  0  0  0  0  0  0  0
   13.1120  -11.6380   -3.0470 H   0  0  0  0  0  0  0  0  0  0  0  0
   11.4090  -12.0370   -2.7140 H   0  0  0  0  0  0  0  0  0  0  0  0
   14.7580  -11.6800    0.3900 H   0  0  0  0  0  0  0  0  0  0  0  0
   17.1190  -11.9830    0.1760 H   0  0  0  0  0  0  0  0  0  0  0  0
   19.1550  -11.7860    1.5460 H   0  0  0  0  0  0  0  0  0  0  0  0
   19.5940  -13.3960    3.3700 H   0  0  0  0  0  0  0  0  0  0  0  0
   17.9870  -15.2260    3.8120 H   0  0  0  0  0  0  0  0  0  0  0  0
   15.0300  -15.7120    1.9570 H   0  0  0  0  0  0  0  0  0  0  0  0
   11.4470  -15.3080   -1.9530 H   0  0  0  0  0  0  0  0  0  0  0  0
   11.1080  -13.5940   -2.0400 H   0  0  0  0  0  0  0  0  0  0  0  0
   10.5560  -11.9770   -0.4580 H   0  0  0  0  0  0  0  0  0  0  0  0
   11.6110  -11.5110    0.8970 H   0  0  0  0  0  0  0  0  0  0  0  0
   11.8120   -9.1980   -0.0750 H   0  0  0  0  0  0  0  0  0  0  0  0
   10.1130   -9.6060    0.2650 H   0  0  0  0  0  0  0  0  0  0  0  0
    7.8680   -9.6130   -2.4790 H   0  0  0  0  0  0  0  0  0  0  0  0
    5.6750   -9.2780   -1.4040 H   0  0  0  0  0  0  0  0  0  0  0  0
    3.3500   -4.4750   -1.7350 H   0  0  0  0  0  0  0  0  0  0  0  0
    2.5450   -1.3230   -5.8450 H   0  0  0  0  0  0  0  0  0  0  0  0
  1  2  1  0  0  0  0
  1 67  1  0  0  0  0
  1 68  1  0  0  0  0
  1 69  1  0  0  0  0
  2  3  2  0  0  0  0
  2 66  1  0  0  0  0
  3  4  1  0  0  0  0
  3 64  1  0  0  0  0
  4  5  2  0  0  0  0
  4 63  1  0  0  0  0
  5  6  1  0  0  0  0
  5 70  1  0  0  0  0
  6  7  2  0  0  0  0
  6 71  1  0  0  0  0
  7  8  1  0  0  0  0
  7 32  1  0  0  0  0
  8  9  1  0  0  0  0
  8 72  1  0  0  0  0
  8 73  1  0  0  0  0
  9 10  1  0  0  0  0
  9 74  1  0  0  0  0
 10 11  2  0  0  0  0
 10 12  1  0  0  0  0
 12 13  1  0  0  0  0
 12 17  1  0  0  0  0
 12 75  1  0  0  0  0
 13 14  1  0  0  0  0
 13 76  1  0  0  0  0
 13 77  1  0  0  0  0
 14 15  1  0  0  0  0
 14 16  1  0  0  0  0
 14 78  1  0  0  0  0
 15 79  1  0  0  0  0
 16 17  1  0  0  0  0
 16 80  1  0  0  0  0
 16 81  1  0  0  0  0
 17 18  1  0  0  0  0
 18 19  2  0  0  0  0
 18 20  1  0  0  0  0
 20 21  1  0  0  0  0
 20 28  1  0  0  0  0
 20 82  1  0  0  0  0
 21 22  1  0  0  0  0
 21 83  1  0  0  0  0
 22 23  2  0  0  0  0
 22 24  1  0  0  0  0
 24 25  1  0  0  0  0
 24 26  1  0  0  0  0
 24 27  1  0  0  0  0
 26 27  1  0  0  0  0
 26 84  1  0  0  0  0
 26 85  1  0  0  0  0
 27 86  1  0  0  0  0
 27 87  1  0  0  0  0
 28 29  1  0  0  0  0
 28 30  1  0  0  0  0
 28 31  1  0  0  0  0
 29 88  1  0  0  0  0
 29 89  1  0  0  0  0
 29 90  1  0  0  0  0
 30 91  1  0  0  0  0
 30 92  1  0  0  0  0
 30 93  1  0  0  0  0
 31 94  1  0  0  0  0
 31 95  1  0  0  0  0
 31 96  1  0  0  0  0
 32 33  1  0  0  0  0
 32 63  2  0  0  0  0
 33 34  1  0  0  0  0
 34 35  1  0  0  0  0
 34 97  1  0  0  0  0
 34 98  1  0  0  0  0
 35 36  1  0  0  0  0
 35 99  1  0  0  0  0
 35100  1  0  0  0  0
 36 37  1  0  0  0  0
 36 62  2  0  0  0  0
 37 38  2  0  0  0  0
 37101  1  0  0  0  0
 38 39  1  0  0  0  0
 38102  1  0  0  0  0
 39 40  1  0  0  0  0
 39 61  2  0  0  0  0
 40 41  1  0  0  0  0
 40103  1  0  0  0  0
 40104  1  0  0  0  0
 41 42  1  0  0  0  0
 41 60  1  0  0  0  0
 41105  1  0  0  0  0
 42 43  1  0  0  0  0
 42106  1  0  0  0  0
 42107  1  0  0  0  0
 43 44  1  0  0  0  0
 43108  1  0  0  0  0
 43109  1  0  0  0  0
 44 45  1  0  0  0  0
 44 59  1  0  0  0  0
 45 46  2  0  0  0  0
 45 57  1  0  0  0  0
 46 47  1  0  0  0  0
 46110  1  0  0  0  0
 47 48  1  0  0  0  0
 47 55  2  0  0  0  0
 48 49  1  0  0  0  0
 48 53  2  0  0  0  0
 49 50  2  0  0  0  0
 49111  1  0  0  0  0
 50 51  1  0  0  0  0
 50112  1  0  0  0  0
 51 52  2  0  0  0  0
 51113  1  0  0  0  0
 52 53  1  0  0  0  0
 52114  1  0  0  0  0
 53 54  1  0  0  0  0
 54115  1  0  0  0  0
 55 56  1  0  0  0  0
 56 57  2  0  0  0  0
 57 58  1  0  0  0  0
 58116  1  0  0  0  0
 58117  1  0  0  0  0
 59 60  1  0  0  0  0
 59118  1  0  0  0  0
 59119  1  0  0  0  0
 60120  1  0  0  0  0
 60121  1  0  0  0  0
 61 62  1  0  0  0  0
 61122  1  0  0  0  0
 62123  1  0  0  0  0
 63124  1  0  0  0  0
 64 65  1  0  0  0  0
 65 66  2  0  0  0  0
 65125  1  0  0  0  0
M  CHG  1  41   1
M  END
>  <Compound ID>
797

>  <Uniprot>
P51531

>  <Target>
SMARCA2

>  <E3 ligase>
VHL

>  <PDB>
6HAX

>  <IC50 (nM, Protac to Target)>
790/680

>  <Assay (Protac to Target, IC50)>
IC50 of SMARCA2 BD was tested by TR-FRET/AlphaLISA

>  <Kd (nM, Protac to Target)>
770

>  <Assay (Protac to Target, Kd)>
SPR in SMARCA2 BD

>  <Kd (nM, Protac to E3)>
100

>  <Assay (Protac to E3, Kd)>
SPR

>  <Ki (nM, Protac to E3)>
490

>  <Assay (Protac to E3, Ki)>
PF

>  <IC50 (nM, Ternary complex)>
45/120

>  <Assay (Ternary complex, IC50)>
TR-FRET/AlphaLISA

>  <Ki (nM, Ternary complex)>
26

>  <Assay (Ternary complex, Ki)>
PF

>  <Article DOI>
10.1038/s41589-019-0294-6

>  <Molecular Weight>
920.125

>  <Exact Mass>
919.42151

>  <XLogP3>
5.27

>  <Heavy Atom Count>
66

>  <Ring Count>
8

>  <Hydrogen Bond Acceptor Count>
13

>  <Hydrogen Bond Donor Count>
5

>  <Rotatable Bond Count>
15

>  <Topological Polar Surface Area>
199.37

>  <Molecular Formula>
C49H58FN9O6S

>  <InChI>
InChI=1S/C49H58FN9O6S/c1-30-42(66-29-53-30)33-13-14-34(26-52-45(62)39-24-35(60)28-59(39)46(63)43(48(2,3)4)54-47(64)49(50)16-17-49)41(23-33)65-22-15-31-9-11-32(12-10-31)27-57-18-20-58(21-19-57)38-25-37(55-56-44(38)51)36-7-5-6-8-40(36)61/h5-14,23,25,29,35,39,43,60-61H,15-22,24,26-28H2,1-4H3,(H2,51,56)(H,52,62)(H,54,64)/t35-,39+,43-/m1/s1

>  <InChI Key>
UTZVLJZPTDCKCT-XBPZXCMESA-N

$$$$
798
  MOE2018           3D

126133  0  0  1  0  0  0  0  0999 V2000
    1.9290   -0.3750    2.1140 C   0  0  0  0  0  0  0  0  0  0  0  0
    3.1500   -0.3010    1.2280 C   0  0  0  0  0  0  0  0  0  0  0  0
    3.6710   -1.3470    0.5100 C   0  0  0  0  0  0  0  0  0  0  0  0
    3.1950   -2.7210    0.3960 C   0  0  0  0  0  0  0  0  0  0  0  0
    1.8460   -2.9950    0.1280 C   0  0  0  0  0  0  0  0  0  0  0  0
    1.3860   -4.3060    0.0310 C   0  0  0  0  0  0  0  0  0  0  0  0
    2.2630   -5.3760    0.1940 C   0  0  0  0  0  0  0  0  0  0  0  0
    1.7620   -6.8000    0.0910 C   0  0  0  0  0  0  0  0  0  0  0  0
    1.9270   -7.1200   -1.3230 N   0  0  0  0  0  0  0  0  0  0  0  0
    1.9740   -8.3340   -1.8690 C   0  0  0  0  0  0  0  0  0  0  0  0
    1.9680   -8.3920   -3.0940 O   0  0  0  0  0  0  0  0  0  0  0  0
    2.0930   -9.6300   -1.0110 C   0  0  2  0  0  0  0  0  0  0  0  0
    3.2660  -10.5270   -1.4430 C   0  0  0  0  0  0  0  0  0  0  0  0
    2.7230  -11.9480   -1.3350 C   0  0  1  0  0  0  0  0  0  0  0  0
    2.8650  -12.4180   -0.0060 O   0  0  0  0  0  0  0  0  0  0  0  0
    1.2530  -11.7480   -1.6980 C   0  0  0  0  0  0  0  0  0  0  0  0
    0.8960  -10.4770   -1.0760 N   0  0  0  0  0  0  0  0  0  0  0  0
   -0.1790  -10.2020   -0.3090 C   0  0  0  0  0  0  0  0  0  0  0  0
   -0.1810   -9.1870    0.3910 O   0  0  0  0  0  0  0  0  0  0  0  0
   -1.4060  -11.1660   -0.2740 C   0  0  1  0  0  0  0  0  0  0  0  0
   -1.6400  -11.6830    1.0820 N   0  0  0  0  0  0  0  0  0  0  0  0
   -0.7290  -12.4370    1.7510 C   0  0  0  0  0  0  0  0  0  0  0  0
    0.2750  -12.8000    1.1550 O   0  0  0  0  0  0  0  0  0  0  0  0
   -1.0100  -12.7670    3.2250 C   0  0  0  0  0  0  0  0  0  0  0  0
   -2.2850  -12.5150    3.6510 F   0  0  0  0  0  0  0  0  0  0  0  0
    0.0800  -12.5210    4.2210 C   0  0  0  0  0  0  0  0  0  0  0  0
   -0.3210  -13.9390    3.8520 C   0  0  0  0  0  0  0  0  0  0  0  0
   -2.7120  -10.5420   -0.8640 C   0  0  0  0  0  0  0  0  0  0  0  0
   -3.3050   -9.3930   -0.0220 C   0  0  0  0  0  0  0  0  0  0  0  0
   -3.8030  -11.6270   -0.9920 C   0  0  0  0  0  0  0  0  0  0  0  0
   -2.4510  -10.0020   -2.2850 C   0  0  0  0  0  0  0  0  0  0  0  0
    3.6100   -5.1000    0.4400 C   0  0  0  0  0  0  0  0  0  0  0  0
    4.5050   -6.1280    0.5820 O   0  0  0  0  0  0  0  0  0  0  0  0
    5.2680   -6.5090   -0.5880 C   0  0  0  0  0  0  0  0  0  0  0  0
    6.0900   -7.7210   -0.1600 C   0  0  0  0  0  0  0  0  0  0  0  0
    6.7560   -8.1710   -1.3630 O   0  0  0  0  0  0  0  0  0  0  0  0
    7.6660   -9.2030   -1.4230 C   0  0  0  0  0  0  0  0  0  0  0  0
    8.1330   -9.5630   -2.6830 C   0  0  0  0  0  0  0  0  0  0  0  0
    9.0530  -10.6010   -2.8050 C   0  0  0  0  0  0  0  0  0  0  0  0
    9.5090  -11.2780   -1.6720 C   0  0  0  0  0  0  0  0  0  0  0  0
   10.5000  -12.4220   -1.8100 C   0  0  0  0  0  0  0  0  0  0  0  0
   11.7370  -12.0240   -1.1000 N   0  3  0  0  0  0  0  0  0  0  0  0
   12.4220  -10.9050   -1.8220 C   0  0  0  0  0  0  0  0  0  0  0  0
   13.6690  -10.4940   -1.0030 C   0  0  0  0  0  0  0  0  0  0  0  0
   14.5750  -11.6730   -0.9540 N   0  0  0  0  0  0  0  0  0  0  0  0
   15.9330  -11.4740   -0.5470 C   0  0  0  0  0  0  0  0  0  0  0  0
   16.3160  -10.3770    0.2130 C   0  0  0  0  0  0  0  0  0  0  0  0
   17.6560  -10.2460    0.5830 C   0  0  0  0  0  0  0  0  0  0  0  0
   18.1160   -9.1080    1.3790 C   0  0  0  0  0  0  0  0  0  0  0  0
   17.3480   -8.6300    2.4540 C   0  0  0  0  0  0  0  0  0  0  0  0
   17.7580   -7.5230    3.1910 C   0  0  0  0  0  0  0  0  0  0  0  0
   18.9460   -6.8680    2.8750 C   0  0  0  0  0  0  0  0  0  0  0  0
   19.7310   -7.3270    1.8240 C   0  0  0  0  0  0  0  0  0  0  0  0
   19.3220   -8.4380    1.0960 C   0  0  0  0  0  0  0  0  0  0  0  0
   20.1380   -8.8600    0.0890 O   0  0  0  0  0  0  0  0  0  0  0  0
   18.5590  -11.1800    0.1930 N   0  0  0  0  0  0  0  0  0  0  0  0
   18.2140  -12.2350   -0.5480 N   0  0  0  0  0  0  0  0  0  0  0  0
   16.9410  -12.3900   -0.9150 C   0  0  0  0  0  0  0  0  0  0  0  0
   16.6610  -13.4710   -1.7210 N   0  0  0  0  0  0  0  0  0  0  0  0
   13.9080  -12.7820   -0.2160 C   0  0  0  0  0  0  0  0  0  0  0  0
   12.6580  -13.1930   -1.0320 C   0  0  0  0  0  0  0  0  0  0  0  0
    9.0360  -10.9030   -0.4120 C   0  0  0  0  0  0  0  0  0  0  0  0
    8.1140   -9.8690   -0.2810 C   0  0  0  0  0  0  0  0  0  0  0  0
    4.0770   -3.7950    0.5440 C   0  0  0  0  0  0  0  0  0  0  0  0
    5.0730   -0.8260   -0.3300 S   0  0  0  0  0  0  0  0  0  0  0  0
    4.8430    0.7480    0.3210 C   0  0  0  0  0  0  0  0  0  0  0  0
    3.8140    0.8770    1.1080 N   0  0  0  0  0  0  0  0  0  0  0  0
    1.5250   -1.3870    2.0930 H   0  0  0  0  0  0  0  0  0  0  0  0
    1.1750    0.3240    1.7530 H   0  0  0  0  0  0  0  0  0  0  0  0
    2.2050   -0.1150    3.1360 H   0  0  0  0  0  0  0  0  0  0  0  0
    1.1530   -2.1770   -0.0050 H   0  0  0  0  0  0  0  0  0  0  0  0
    0.3420   -4.4940   -0.1720 H   0  0  0  0  0  0  0  0  0  0  0  0
    0.7150   -6.8660    0.3850 H   0  0  0  0  0  0  0  0  0  0  0  0
    2.3570   -7.4680    0.7130 H   0  0  0  0  0  0  0  0  0  0  0  0
    2.0150   -6.3370   -1.9550 H   0  0  0  0  0  0  0  0  0  0  0  0
    2.2420   -9.2510    0.0000 H   0  0  0  0  0  0  0  0  0  0  0  0
    4.1200  -10.3900   -0.7800 H   0  0  0  0  0  0  0  0  0  0  0  0
    3.5630  -10.3050   -2.4680 H   0  0  0  0  0  0  0  0  0  0  0  0
    3.2290  -12.6790   -1.9650 H   0  0  0  0  0  0  0  0  0  0  0  0
    2.4260  -11.7900    0.5720 H   0  0  0  0  0  0  0  0  0  0  0  0
    0.6430  -12.5580   -1.2980 H   0  0  0  0  0  0  0  0  0  0  0  0
    1.1260  -11.6970   -2.7790 H   0  0  0  0  0  0  0  0  0  0  0  0
   -1.1450  -11.9980   -0.9280 H   0  0  0  0  0  0  0  0  0  0  0  0
   -2.5160  -11.4680    1.5360 H   0  0  0  0  0  0  0  0  0  0  0  0
    1.0400  -12.1220    3.8930 H   0  0  0  0  0  0  0  0  0  0  0  0
   -0.1610  -12.1240    5.2070 H   0  0  0  0  0  0  0  0  0  0  0  0
   -0.8500  -14.5620    4.5730 H   0  0  0  0  0  0  0  0  0  0  0  0
    0.3500  -14.5600    3.2590 H   0  0  0  0  0  0  0  0  0  0  0  0
   -4.2080   -9.0190   -0.5030 H   0  0  0  0  0  0  0  0  0  0  0  0
   -2.5750   -8.5870    0.0580 H   0  0  0  0  0  0  0  0  0  0  0  0
   -3.5500   -9.7620    0.9740 H   0  0  0  0  0  0  0  0  0  0  0  0
   -4.7100  -11.1840   -1.4040 H   0  0  0  0  0  0  0  0  0  0  0  0
   -4.0170  -12.0450   -0.0080 H   0  0  0  0  0  0  0  0  0  0  0  0
   -3.4520  -12.4190   -1.6540 H   0  0  0  0  0  0  0  0  0  0  0  0
   -3.3690   -9.5700   -2.6840 H   0  0  0  0  0  0  0  0  0  0  0  0
   -2.1230  -10.8180   -2.9290 H   0  0  0  0  0  0  0  0  0  0  0  0
   -1.6760   -9.2360   -2.2460 H   0  0  0  0  0  0  0  0  0  0  0  0
    4.6010   -6.7720   -1.4090 H   0  0  0  0  0  0  0  0  0  0  0  0
    5.9230   -5.6950   -0.8980 H   0  0  0  0  0  0  0  0  0  0  0  0
    5.4410   -8.5040    0.2330 H   0  0  0  0  0  0  0  0  0  0  0  0
    6.8200   -7.4390    0.5990 H   0  0  0  0  0  0  0  0  0  0  0  0
    7.7840   -9.0400   -3.5610 H   0  0  0  0  0  0  0  0  0  0  0  0
    9.4160  -10.8840   -3.7820 H   0  0  0  0  0  0  0  0  0  0  0  0
   10.7160  -12.6030   -2.8630 H   0  0  0  0  0  0  0  0  0  0  0  0
   10.0890  -13.3270   -1.3630 H   0  0  0  0  0  0  0  0  0  0  0  0
   11.4930  -11.7130   -0.1700 H   0  0  0  0  0  0  0  0  0  0  0  0
   12.7250  -11.2370   -2.8150 H   0  0  0  0  0  0  0  0  0  0  0  0
   11.7450  -10.0560   -1.9140 H   0  0  0  0  0  0  0  0  0  0  0  0
   13.3740  -10.2080    0.0070 H   0  0  0  0  0  0  0  0  0  0  0  0
   14.1730   -9.6560   -1.4860 H   0  0  0  0  0  0  0  0  0  0  0  0
   15.5890   -9.6370    0.5130 H   0  0  0  0  0  0  0  0  0  0  0  0
   16.4260   -9.1290    2.7120 H   0  0  0  0  0  0  0  0  0  0  0  0
   17.1520   -7.1700    4.0120 H   0  0  0  0  0  0  0  0  0  0  0  0
   19.2560   -6.0050    3.4460 H   0  0  0  0  0  0  0  0  0  0  0  0
   20.6530   -6.8230    1.5750 H   0  0  0  0  0  0  0  0  0  0  0  0
   19.8240   -9.6290   -0.3920 H   0  0  0  0  0  0  0  0  0  0  0  0
   17.4020  -14.0960   -2.0030 H   0  0  0  0  0  0  0  0  0  0  0  0
   15.7140  -13.6390   -2.0300 H   0  0  0  0  0  0  0  0  0  0  0  0
   14.5870  -13.6290   -0.1230 H   0  0  0  0  0  0  0  0  0  0  0  0
   13.6110  -12.4440    0.7770 H   0  0  0  0  0  0  0  0  0  0  0  0
   12.1570  -14.0290   -0.5430 H   0  0  0  0  0  0  0  0  0  0  0  0
   12.9550  -13.4870   -2.0390 H   0  0  0  0  0  0  0  0  0  0  0  0
    9.3890  -11.4200    0.4680 H   0  0  0  0  0  0  0  0  0  0  0  0
    7.7490   -9.5850    0.6950 H   0  0  0  0  0  0  0  0  0  0  0  0
    5.1230   -3.6110    0.7390 H   0  0  0  0  0  0  0  0  0  0  0  0
    5.5050    1.5710    0.0940 H   0  0  0  0  0  0  0  0  0  0  0  0
  1  2  1  0  0  0  0
  1 68  1  0  0  0  0
  1 69  1  0  0  0  0
  1 70  1  0  0  0  0
  2  3  2  0  0  0  0
  2 67  1  0  0  0  0
  3  4  1  0  0  0  0
  3 65  1  0  0  0  0
  4  5  2  0  0  0  0
  4 64  1  0  0  0  0
  5  6  1  0  0  0  0
  5 71  1  0  0  0  0
  6  7  2  0  0  0  0
  6 72  1  0  0  0  0
  7  8  1  0  0  0  0
  7 32  1  0  0  0  0
  8  9  1  0  0  0  0
  8 73  1  0  0  0  0
  8 74  1  0  0  0  0
  9 10  1  0  0  0  0
  9 75  1  0  0  0  0
 10 11  2  0  0  0  0
 10 12  1  0  0  0  0
 12 13  1  0  0  0  0
 12 17  1  0  0  0  0
 12 76  1  0  0  0  0
 13 14  1  0  0  0  0
 13 77  1  0  0  0  0
 13 78  1  0  0  0  0
 14 15  1  0  0  0  0
 14 16  1  0  0  0  0
 14 79  1  0  0  0  0
 15 80  1  0  0  0  0
 16 17  1  0  0  0  0
 16 81  1  0  0  0  0
 16 82  1  0  0  0  0
 17 18  1  0  0  0  0
 18 19  2  0  0  0  0
 18 20  1  0  0  0  0
 20 21  1  0  0  0  0
 20 28  1  0  0  0  0
 20 83  1  0  0  0  0
 21 22  1  0  0  0  0
 21 84  1  0  0  0  0
 22 23  2  0  0  0  0
 22 24  1  0  0  0  0
 24 25  1  0  0  0  0
 24 26  1  0  0  0  0
 24 27  1  0  0  0  0
 26 27  1  0  0  0  0
 26 85  1  0  0  0  0
 26 86  1  0  0  0  0
 27 87  1  0  0  0  0
 27 88  1  0  0  0  0
 28 29  1  0  0  0  0
 28 30  1  0  0  0  0
 28 31  1  0  0  0  0
 29 89  1  0  0  0  0
 29 90  1  0  0  0  0
 29 91  1  0  0  0  0
 30 92  1  0  0  0  0
 30 93  1  0  0  0  0
 30 94  1  0  0  0  0
 31 95  1  0  0  0  0
 31 96  1  0  0  0  0
 31 97  1  0  0  0  0
 32 33  1  0  0  0  0
 32 64  2  0  0  0  0
 33 34  1  0  0  0  0
 34 35  1  0  0  0  0
 34 98  1  0  0  0  0
 34 99  1  0  0  0  0
 35 36  1  0  0  0  0
 35100  1  0  0  0  0
 35101  1  0  0  0  0
 36 37  1  0  0  0  0
 37 38  1  0  0  0  0
 37 63  2  0  0  0  0
 38 39  2  0  0  0  0
 38102  1  0  0  0  0
 39 40  1  0  0  0  0
 39103  1  0  0  0  0
 40 41  1  0  0  0  0
 40 62  2  0  0  0  0
 41 42  1  0  0  0  0
 41104  1  0  0  0  0
 41105  1  0  0  0  0
 42 43  1  0  0  0  0
 42 61  1  0  0  0  0
 42106  1  0  0  0  0
 43 44  1  0  0  0  0
 43107  1  0  0  0  0
 43108  1  0  0  0  0
 44 45  1  0  0  0  0
 44109  1  0  0  0  0
 44110  1  0  0  0  0
 45 46  1  0  0  0  0
 45 60  1  0  0  0  0
 46 47  2  0  0  0  0
 46 58  1  0  0  0  0
 47 48  1  0  0  0  0
 47111  1  0  0  0  0
 48 49  1  0  0  0  0
 48 56  2  0  0  0  0
 49 50  1  0  0  0  0
 49 54  2  0  0  0  0
 50 51  2  0  0  0  0
 50112  1  0  0  0  0
 51 52  1  0  0  0  0
 51113  1  0  0  0  0
 52 53  2  0  0  0  0
 52114  1  0  0  0  0
 53 54  1  0  0  0  0
 53115  1  0  0  0  0
 54 55  1  0  0  0  0
 55116  1  0  0  0  0
 56 57  1  0  0  0  0
 57 58  2  0  0  0  0
 58 59  1  0  0  0  0
 59117  1  0  0  0  0
 59118  1  0  0  0  0
 60 61  1  0  0  0  0
 60119  1  0  0  0  0
 60120  1  0  0  0  0
 61121  1  0  0  0  0
 61122  1  0  0  0  0
 62 63  1  0  0  0  0
 62123  1  0  0  0  0
 63124  1  0  0  0  0
 64125  1  0  0  0  0
 65 66  1  0  0  0  0
 66 67  2  0  0  0  0
 66126  1  0  0  0  0
M  CHG  1  42   1
M  END
>  <Compound ID>
798

>  <Uniprot>
P51531

>  <Target>
SMARCA2

>  <E3 ligase>
VHL

>  <DC50 (nM)>
6/3.3

>  <Assay (DC50/Dmax)>
Degradation of SMARCA2 in MV-4-11/NCI-H1568 cells after 18 h treatment

>  <IC50 (nM, Protac to Target)>
770/700

>  <Assay (Protac to Target, IC50)>
IC50 of SMARCA2 BD was tested by TR-FRET/AlphaLISA

>  <Kd (nM, Protac to Target)>
1800

>  <Assay (Protac to Target, Kd)>
SPR in SMARCA2 BD

>  <Kd (nM, Protac to E3)>
250

>  <Assay (Protac to E3, Kd)>
SPR

>  <Ki (nM, Protac to E3)>
450

>  <Assay (Protac to E3, Ki)>
PF

>  <IC50 (nM, Ternary complex)>
26/730

>  <Assay (Ternary complex, IC50)>
TR-FRET/AlphaLISA

>  <Ki (nM, Ternary complex)>
16

>  <Assay (Ternary complex, Ki)>
PF

>  <Article DOI>
10.1038/s41589-019-0294-6

>  <Molecular Weight>
936.12402

>  <Exact Mass>
935.41638

>  <XLogP3>
4.98

>  <Heavy Atom Count>
67

>  <Ring Count>
8

>  <Hydrogen Bond Acceptor Count>
14

>  <Hydrogen Bond Donor Count>
5

>  <Rotatable Bond Count>
16

>  <Topological Polar Surface Area>
208.60001

>  <Molecular Formula>
C49H58FN9O7S

>  <InChI>
InChI=1S/C49H58FN9O7S/c1-30-42(67-29-53-30)32-11-12-33(26-52-45(62)39-24-34(60)28-59(39)46(63)43(48(2,3)4)54-47(64)49(50)15-16-49)41(23-32)66-22-21-65-35-13-9-31(10-14-35)27-57-17-19-58(20-18-57)38-25-37(55-56-44(38)51)36-7-5-6-8-40(36)61/h5-14,23,25,29,34,39,43,60-61H,15-22,24,26-28H2,1-4H3,(H2,51,56)(H,52,62)(H,54,64)/t34-,39+,43-/m1/s1

>  <InChI Key>
IVARZBJJMMUJHI-SQKKEFIPSA-N

>  <Name>
ACBI1

>  <IC50 (nM, Cellular activities)>
28/68

>  <Assay (Cellular activities, IC50)>
Inhibit proliferation of MV-4-11/NCI-H1568 cells

$$$$
p1
  MOE2018           3D

127133  0  0  1  0  0  0  0  0999 V2000
  -29.0310   13.9530  -33.3270 N   0  0  0  0  0  0  0  0  0  0  0  0
  -29.3110   13.9870  -30.8400 C   0  0  0  0  0  0  0  0  0  0  0  0
  -29.5480   17.0040  -31.0420 C   0  0  0  0  0  0  0  0  0  0  0  0
  -31.1790   15.9790  -32.6470 C   0  0  0  0  0  0  0  0  0  0  0  0
  -29.0460   16.9460  -33.4600 C   0  0  0  0  0  0  0  0  0  0  0  0
  -28.6700   12.6230  -28.9200 C   0  0  1  0  0  0  0  0  0  0  0  0
  -26.9580   13.9500  -29.9190 C   0  0  0  0  0  0  0  0  0  0  0  0
  -29.7820   12.8680  -27.8660 C   0  0  0  0  0  0  0  0  0  0  0  0
  -31.2470   12.1880  -23.7420 C   0  0  0  0  0  0  0  0  0  0  0  0
  -30.7480   11.8880  -22.4740 C   0  0  0  0  0  0  0  0  0  0  0  0
  -29.7410   10.9320  -22.3200 C   0  0  0  0  0  0  0  0  0  0  0  0
  -29.7580   10.5780  -24.7210 C   0  0  0  0  0  0  0  0  0  0  0  0
  -29.8640   10.3010  -19.8440 C   0  0  0  0  0  0  0  0  0  0  0  0
  -27.8160   10.2220  -19.0750 C   0  0  0  0  0  0  0  0  0  0  0  0
  -28.9110   14.7880  -32.1230 C   0  0  2  0  0  0  0  0  0  0  0  0
  -29.6800   16.1360  -32.3090 C   0  0  0  0  0  0  0  0  0  0  0  0
  -28.4030   13.7060  -29.8820 N   0  0  0  0  0  0  0  0  0  0  0  0
  -30.4710   13.5890  -30.7030 O   0  0  0  0  0  0  0  0  0  0  0  0
  -27.3230   12.2980  -28.2670 C   0  0  0  0  0  0  0  0  0  0  0  0
  -26.3180   12.6860  -29.3430 C   0  0  1  0  0  0  0  0  0  0  0  0
  -26.2470   11.6520  -30.3070 O   0  0  0  0  0  0  0  0  0  0  0  0
  -30.1140   14.0030  -27.5150 O   0  0  0  0  0  0  0  0  0  0  0  0
  -30.3570   11.7860  -27.3310 N   0  0  0  0  0  0  0  0  0  0  0  0
  -31.3360   11.8420  -26.2490 C   0  0  0  0  0  0  0  0  0  0  0  0
  -30.7600   11.5360  -24.8800 C   0  0  0  0  0  0  0  0  0  0  0  0
  -29.2510   10.2850  -23.4600 C   0  0  0  0  0  0  0  0  0  0  0  0
  -29.2020   10.6180  -21.0030 C   0  0  0  0  0  0  0  0  0  0  0  0
  -29.0730   10.0880  -18.7620 N   0  0  0  0  0  0  0  0  0  0  0  0
  -27.5100   10.6200  -20.7190 S   0  0  0  0  0  0  0  0  0  0  0  0
  -31.3630   10.1760  -19.7050 C   0  0  0  0  0  0  0  0  0  0  0  0
  -28.2610   12.8560  -33.5510 C   0  0  0  0  0  0  0  0  0  0  0  0
  -28.5630   12.0010  -34.7870 C   0  0  0  0  0  0  0  0  0  0  0  0
  -27.3800   12.5900  -32.7460 O   0  0  0  0  0  0  0  0  0  0  0  0
  -29.3670   12.6110  -35.7110 F   0  0  0  0  0  0  0  0  0  0  0  0
  -27.5490   11.0530  -35.3660 C   0  0  0  0  0  0  0  0  0  0  0  0
  -28.7660   10.5160  -34.6690 C   0  0  0  0  0  0  0  0  0  0  0  0
  -32.2460   13.1420  -23.9080 O   0  0  0  0  0  0  0  0  0  0  0  0
  -32.7790   14.0160  -22.8760 C   0  0  0  0  0  0  0  0  0  0  0  0
  -31.5120   16.2120  -23.4710 C   0  0  0  0  0  0  0  0  0  0  0  0
  -30.6430   15.7210  -24.6430 C   0  0  0  0  0  0  0  0  0  0  0  0
  -30.0940   16.8660  -25.5130 C   0  0  0  0  0  0  0  0  0  0  0  0
  -31.8030   15.1180  -22.4280 C   0  0  0  0  0  0  0  0  0  0  0  0
  -31.1350   17.7140  -26.2710 C   0  0  0  0  0  0  0  0  0  0  0  0
  -31.5680   17.1620  -27.6370 C   0  0  0  0  0  0  0  0  0  0  0  0
  -32.2300   15.8130  -27.6310 N   0  3  0  0  0  0  0  0  0  0  0  0
  -33.4890   15.7120  -26.7700 C   0  0  0  0  0  0  0  0  0  0  0  0
  -34.2530   14.3640  -26.8450 C   0  0  0  0  0  0  0  0  0  0  0  0
  -34.4360   13.8280  -28.2270 N   0  0  0  0  0  0  0  0  0  0  0  0
  -33.1900   13.8820  -29.0640 C   0  0  0  0  0  0  0  0  0  0  0  0
  -32.4840   15.2550  -29.0290 C   0  0  0  0  0  0  0  0  0  0  0  0
  -35.6700   14.0350  -28.9410 C   0  0  0  0  0  0  0  0  0  0  0  0
  -36.5360   15.0700  -28.6060 C   0  0  0  0  0  0  0  0  0  0  0  0
  -37.7090   15.2420  -29.3450 C   0  0  0  0  0  0  0  0  0  0  0  0
  -37.9880   14.4040  -30.3710 N   0  0  0  0  0  0  0  0  0  0  0  0
  -37.1840   13.3920  -30.6960 N   0  0  0  0  0  0  0  0  0  0  0  0
  -36.0620   13.1900  -30.0050 C   0  0  0  0  0  0  0  0  0  0  0  0
  -35.3390   12.0740  -30.3630 N   0  0  0  0  0  0  0  0  0  0  0  0
  -38.6580   16.3090  -29.0280 C   0  0  0  0  0  0  0  0  0  0  0  0
  -40.0490   16.0900  -29.0070 C   0  0  0  0  0  0  0  0  0  0  0  0
  -40.9420   17.0900  -28.6450 C   0  0  0  0  0  0  0  0  0  0  0  0
  -40.4630   18.3530  -28.3160 C   0  0  0  0  0  0  0  0  0  0  0  0
  -39.0940   18.6070  -28.3560 C   0  0  0  0  0  0  0  0  0  0  0  0
  -38.2020   17.5990  -28.7100 C   0  0  0  0  0  0  0  0  0  0  0  0
  -40.5780   14.8790  -29.3470 O   0  0  0  0  0  0  0  0  0  0  0  0
  -29.7190   14.2070  -34.0210 H   0  0  0  0  0  0  0  0  0  0  0  0
  -30.0880   17.9400  -31.1850 H   0  0  0  0  0  0  0  0  0  0  0  0
  -28.4950   17.2170  -30.8550 H   0  0  0  0  0  0  0  0  0  0  0  0
  -29.9670   16.4690  -30.1900 H   0  0  0  0  0  0  0  0  0  0  0  0
  -31.6320   16.9640  -32.7580 H   0  0  0  0  0  0  0  0  0  0  0  0
  -31.6780   15.4390  -31.8430 H   0  0  0  0  0  0  0  0  0  0  0  0
  -31.2850   15.4230  -33.5790 H   0  0  0  0  0  0  0  0  0  0  0  0
  -29.5860   17.8840  -33.5850 H   0  0  0  0  0  0  0  0  0  0  0  0
  -29.1010   16.3700  -34.3830 H   0  0  0  0  0  0  0  0  0  0  0  0
  -28.0030   17.1560  -33.2250 H   0  0  0  0  0  0  0  0  0  0  0  0
  -29.0930   11.7860  -29.4760 H   0  0  0  0  0  0  0  0  0  0  0  0
  -26.6250   14.1130  -30.9440 H   0  0  0  0  0  0  0  0  0  0  0  0
  -26.7020   14.8180  -29.3110 H   0  0  0  0  0  0  0  0  0  0  0  0
  -31.1420   12.3970  -21.6070 H   0  0  0  0  0  0  0  0  0  0  0  0
  -29.3720   10.0590  -25.5860 H   0  0  0  0  0  0  0  0  0  0  0  0
  -27.0230   10.0920  -18.3540 H   0  0  0  0  0  0  0  0  0  0  0  0
  -27.8670   15.0620  -31.9740 H   0  0  0  0  0  0  0  0  0  0  0  0
  -27.2500   11.2370  -28.0270 H   0  0  0  0  0  0  0  0  0  0  0  0
  -27.1740   12.8870  -27.3620 H   0  0  0  0  0  0  0  0  0  0  0  0
  -25.2970   12.8440  -28.9950 H   0  0  0  0  0  0  0  0  0  0  0  0
  -27.1370   11.4940  -30.6300 H   0  0  0  0  0  0  0  0  0  0  0  0
  -30.1000   10.8800  -27.6950 H   0  0  0  0  0  0  0  0  0  0  0  0
  -31.7630   12.8440  -26.2250 H   0  0  0  0  0  0  0  0  0  0  0  0
  -32.1220   11.1170  -26.4600 H   0  0  0  0  0  0  0  0  0  0  0  0
  -28.4680    9.5480  -23.3590 H   0  0  0  0  0  0  0  0  0  0  0  0
  -31.8350   10.3790  -20.6660 H   0  0  0  0  0  0  0  0  0  0  0  0
  -31.7200   10.8930  -18.9660 H   0  0  0  0  0  0  0  0  0  0  0  0
  -31.6150    9.1660  -19.3830 H   0  0  0  0  0  0  0  0  0  0  0  0
  -27.4520   10.9530  -36.4470 H   0  0  0  0  0  0  0  0  0  0  0  0
  -26.5680   10.9550  -34.9020 H   0  0  0  0  0  0  0  0  0  0  0  0
  -28.6680   10.0280  -33.6990 H   0  0  0  0  0  0  0  0  0  0  0  0
  -29.5520   10.0260  -35.2440 H   0  0  0  0  0  0  0  0  0  0  0  0
  -33.6810   14.4920  -23.2610 H   0  0  0  0  0  0  0  0  0  0  0  0
  -33.0320   13.4080  -22.0080 H   0  0  0  0  0  0  0  0  0  0  0  0
  -32.4610   16.5700  -23.8700 H   0  0  0  0  0  0  0  0  0  0  0  0
  -30.9930   17.0330  -22.9760 H   0  0  0  0  0  0  0  0  0  0  0  0
  -29.8010   15.1590  -24.2380 H   0  0  0  0  0  0  0  0  0  0  0  0
  -31.2470   15.0670  -25.2720 H   0  0  0  0  0  0  0  0  0  0  0  0
  -29.4220   16.4280  -26.2520 H   0  0  0  0  0  0  0  0  0  0  0  0
  -29.5320   17.5360  -24.8630 H   0  0  0  0  0  0  0  0  0  0  0  0
  -32.2230   15.6000  -21.5450 H   0  0  0  0  0  0  0  0  0  0  0  0
  -30.8570   14.6430  -22.1670 H   0  0  0  0  0  0  0  0  0  0  0  0
  -30.7100   18.7050  -26.4290 H   0  0  0  0  0  0  0  0  0  0  0  0
  -32.0230   17.7950  -25.6440 H   0  0  0  0  0  0  0  0  0  0  0  0
  -30.6790   17.0930  -28.2640 H   0  0  0  0  0  0  0  0  0  0  0  0
  -32.2680   17.8730  -28.0760 H   0  0  0  0  0  0  0  0  0  0  0  0
  -31.5400   15.2270  -27.1830 H   0  0  0  0  0  0  0  0  0  0  0  0
  -33.1980   15.8740  -25.7320 H   0  0  0  0  0  0  0  0  0  0  0  0
  -34.1720   16.5010  -27.0830 H   0  0  0  0  0  0  0  0  0  0  0  0
  -35.2390   14.5070  -26.4030 H   0  0  0  0  0  0  0  0  0  0  0  0
  -33.6980   13.6260  -26.2650 H   0  0  0  0  0  0  0  0  0  0  0  0
  -32.4950   13.1270  -28.6970 H   0  0  0  0  0  0  0  0  0  0  0  0
  -33.4580   13.6580  -30.0970 H   0  0  0  0  0  0  0  0  0  0  0  0
  -33.1050   15.9690  -29.5710 H   0  0  0  0  0  0  0  0  0  0  0  0
  -31.5230   15.1540  -29.5330 H   0  0  0  0  0  0  0  0  0  0  0  0
  -36.3050   15.7320  -27.7850 H   0  0  0  0  0  0  0  0  0  0  0  0
  -35.6710   11.4740  -31.1050 H   0  0  0  0  0  0  0  0  0  0  0  0
  -34.4770   11.8550  -29.8840 H   0  0  0  0  0  0  0  0  0  0  0  0
  -42.0030   16.8880  -28.6190 H   0  0  0  0  0  0  0  0  0  0  0  0
  -41.1510   19.1350  -28.0300 H   0  0  0  0  0  0  0  0  0  0  0  0
  -38.7230   19.5910  -28.1110 H   0  0  0  0  0  0  0  0  0  0  0  0
  -37.1440   17.8120  -28.7410 H   0  0  0  0  0  0  0  0  0  0  0  0
  -39.9350   14.2100  -29.5940 H   0  0  0  0  0  0  0  0  0  0  0  0
  1 15  1  0  0  0  0
  1 31  1  0  0  0  0
  1 65  1  0  0  0  0
  2 15  1  0  0  0  0
  2 17  1  0  0  0  0
  2 18  2  0  0  0  0
  3 16  1  0  0  0  0
  3 66  1  0  0  0  0
  3 67  1  0  0  0  0
  3 68  1  0  0  0  0
  4 16  1  0  0  0  0
  4 69  1  0  0  0  0
  4 70  1  0  0  0  0
  4 71  1  0  0  0  0
  5 16  1  0  0  0  0
  5 72  1  0  0  0  0
  5 73  1  0  0  0  0
  5 74  1  0  0  0  0
  6  8  1  0  0  0  0
  6 17  1  0  0  0  0
  6 19  1  0  0  0  0
  6 75  1  0  0  0  0
  7 17  1  0  0  0  0
  7 20  1  0  0  0  0
  7 76  1  0  0  0  0
  7 77  1  0  0  0  0
  8 22  2  0  0  0  0
  8 23  1  0  0  0  0
  9 10  1  0  0  0  0
  9 25  2  0  0  0  0
  9 37  1  0  0  0  0
 10 11  2  0  0  0  0
 10 78  1  0  0  0  0
 11 26  1  0  0  0  0
 11 27  1  0  0  0  0
 12 25  1  0  0  0  0
 12 26  2  0  0  0  0
 12 79  1  0  0  0  0
 13 27  2  0  0  0  0
 13 28  1  0  0  0  0
 13 30  1  0  0  0  0
 14 28  2  0  0  0  0
 14 29  1  0  0  0  0
 14 80  1  0  0  0  0
 15 16  1  0  0  0  0
 15 81  1  0  0  0  0
 19 20  1  0  0  0  0
 19 82  1  0  0  0  0
 19 83  1  0  0  0  0
 20 21  1  0  0  0  0
 20 84  1  0  0  0  0
 21 85  1  0  0  0  0
 23 24  1  0  0  0  0
 23 86  1  0  0  0  0
 24 25  1  0  0  0  0
 24 87  1  0  0  0  0
 24 88  1  0  0  0  0
 26 89  1  0  0  0  0
 27 29  1  0  0  0  0
 30 90  1  0  0  0  0
 30 91  1  0  0  0  0
 30 92  1  0  0  0  0
 31 32  1  0  0  0  0
 31 33  2  0  0  0  0
 32 34  1  0  0  0  0
 32 35  1  0  0  0  0
 32 36  1  0  0  0  0
 35 36  1  0  0  0  0
 35 93  1  0  0  0  0
 35 94  1  0  0  0  0
 36 95  1  0  0  0  0
 36 96  1  0  0  0  0
 37 38  1  0  0  0  0
 38 42  1  0  0  0  0
 38 97  1  0  0  0  0
 38 98  1  0  0  0  0
 39 40  1  0  0  0  0
 39 42  1  0  0  0  0
 39 99  1  0  0  0  0
 39100  1  0  0  0  0
 40 41  1  0  0  0  0
 40101  1  0  0  0  0
 40102  1  0  0  0  0
 41 43  1  0  0  0  0
 41103  1  0  0  0  0
 41104  1  0  0  0  0
 42105  1  0  0  0  0
 42106  1  0  0  0  0
 43 44  1  0  0  0  0
 43107  1  0  0  0  0
 43108  1  0  0  0  0
 44 45  1  0  0  0  0
 44109  1  0  0  0  0
 44110  1  0  0  0  0
 45 46  1  0  0  0  0
 45 50  1  0  0  0  0
 45111  1  0  0  0  0
 46 47  1  0  0  0  0
 46112  1  0  0  0  0
 46113  1  0  0  0  0
 47 48  1  0  0  0  0
 47114  1  0  0  0  0
 47115  1  0  0  0  0
 48 49  1  0  0  0  0
 48 51  1  0  0  0  0
 49 50  1  0  0  0  0
 49116  1  0  0  0  0
 49117  1  0  0  0  0
 50118  1  0  0  0  0
 50119  1  0  0  0  0
 51 52  2  0  0  0  0
 51 56  1  0  0  0  0
 52 53  1  0  0  0  0
 52120  1  0  0  0  0
 53 54  2  0  0  0  0
 53 58  1  0  0  0  0
 54 55  1  0  0  0  0
 55 56  2  0  0  0  0
 56 57  1  0  0  0  0
 57121  1  0  0  0  0
 57122  1  0  0  0  0
 58 59  1  0  0  0  0
 58 63  2  0  0  0  0
 59 60  2  0  0  0  0
 59 64  1  0  0  0  0
 60 61  1  0  0  0  0
 60123  1  0  0  0  0
 61 62  2  0  0  0  0
 61124  1  0  0  0  0
 62 63  1  0  0  0  0
 62125  1  0  0  0  0
 63126  1  0  0  0  0
 64127  1  0  0  0  0
M  CHG  1  45   1
M  END
$$$$
p2
  MOE2018           3D

125132  0  0  1  0  0  0  0  0999 V2000
  -28.6190   14.1640  -33.0260 N   0  0  0  0  0  0  0  0  0  0  0  0
  -29.2620   13.9160  -30.6030 C   0  0  0  0  0  0  0  0  0  0  0  0
  -28.8740   16.8420  -30.2760 C   0  0  0  0  0  0  0  0  0  0  0  0
  -30.1590   16.5880  -32.4190 C   0  0  0  0  0  0  0  0  0  0  0  0
  -27.7240   17.0320  -32.4560 C   0  0  0  0  0  0  0  0  0  0  0  0
  -29.3160   12.2260  -28.8060 C   0  0  3  0  0  0  0  0  0  0  0  0
  -27.1740   12.9920  -29.5450 C   0  0  0  0  0  0  0  0  0  0  0  0
  -30.2850   12.7570  -27.7060 C   0  0  0  0  0  0  0  0  0  0  0  0
  -30.9620   12.4120  -23.0480 C   0  0  0  0  0  0  0  0  0  0  0  0
  -30.2000   12.1940  -21.9020 C   0  0  0  0  0  0  0  0  0  0  0  0
  -28.9680   11.5410  -21.9890 C   0  0  0  0  0  0  0  0  0  0  0  0
  -29.2920   11.3330  -24.3870 C   0  0  0  0  0  0  0  0  0  0  0  0
  -28.5130   10.7760  -19.5920 C   0  0  0  0  0  0  0  0  0  0  0  0
  -26.4100   11.1900  -19.1480 C   0  0  0  0  0  0  0  0  0  0  0  0
  -28.4720   14.7360  -31.6780 C   0  0  3  0  0  0  0  0  0  0  0  0
  -28.8280   16.2590  -31.7040 C   0  0  0  0  0  0  0  0  0  0  0  0
  -28.6170   13.2350  -29.6300 N   0  0  0  0  0  0  0  0  0  0  0  0
  -30.4930   13.9050  -30.6380 O   0  0  0  0  0  0  0  0  0  0  0  0
  -28.1950   11.3700  -28.1930 C   0  0  0  0  0  0  0  0  0  0  0  0
  -27.0350   11.5220  -29.1610 C   0  0  3  0  0  0  0  0  0  0  0  0
  -27.2420   10.6580  -30.2620 O   0  0  0  0  0  0  0  0  0  0  0  0
  -30.5970   13.9440  -27.6370 O   0  0  0  0  0  0  0  0  0  0  0  0
  -30.7680   11.8800  -26.8160 N   0  0  0  0  0  0  0  0  0  0  0  0
  -31.3850   12.2640  -25.5340 C   0  0  0  0  0  0  0  0  0  0  0  0
  -30.5220   11.9910  -24.3080 C   0  0  0  0  0  0  0  0  0  0  0  0
  -28.5250   11.1170  -23.2470 C   0  0  0  0  0  0  0  0  0  0  0  0
  -28.1550   11.3130  -20.8020 C   0  0  0  0  0  0  0  0  0  0  0  0
  -27.5240   10.7200  -18.6640 N   0  0  0  0  0  0  0  0  0  0  0  0
  -26.4930   11.7380  -20.7750 S   0  0  0  0  0  0  0  0  0  0  0  0
  -29.8880   10.2600  -19.2380 C   0  0  0  0  0  0  0  0  0  0  0  0
  -28.1970   12.9190  -33.3720 C   0  0  0  0  0  0  0  0  0  0  0  0
  -28.4800   12.4270  -34.7980 C   0  0  0  0  0  0  0  0  0  0  0  0
  -27.6200   12.2470  -32.5320 O   0  0  0  0  0  0  0  0  0  0  0  0
  -29.0110   13.3760  -35.6280 F   0  0  0  0  0  0  0  0  0  0  0  0
  -27.5790   11.4330  -35.4790 C   0  0  0  0  0  0  0  0  0  0  0  0
  -28.9630   11.0270  -35.0600 C   0  0  0  0  0  0  0  0  0  0  0  0
  -32.1840   13.0520  -22.9600 O   0  0  0  0  0  0  0  0  0  0  0  0
  -32.5880   13.9910  -21.9120 C   0  0  0  0  0  0  0  0  0  0  0  0
  -31.7920   15.3050  -21.9450 C   0  0  0  0  0  0  0  0  0  0  0  0
  -31.9110   16.7290  -25.9970 C   0  0  0  0  0  0  0  0  0  0  0  0
  -32.9490   17.0430  -25.1200 C   0  0  0  0  0  0  0  0  0  0  0  0
  -32.8910   16.6300  -23.7940 C   0  0  0  0  0  0  0  0  0  0  0  0
  -31.7930   15.9090  -23.3330 C   0  0  0  0  0  0  0  0  0  0  0  0
  -30.7190   15.6730  -24.1860 C   0  0  0  0  0  0  0  0  0  0  0  0
  -30.7750   16.0860  -25.5100 C   0  0  0  0  0  0  0  0  0  0  0  0
  -32.0590   16.9590  -27.4800 C   0  0  0  0  0  0  0  0  0  0  0  0
  -32.6300   15.7450  -28.1720 N   0  3  0  0  0  0  0  0  0  0  0  0
  -33.9030   15.2070  -27.5160 C   0  0  0  0  0  0  0  0  0  0  0  0
  -34.5860   14.0240  -28.2420 C   0  0  0  0  0  0  0  0  0  0  0  0
  -34.7650   14.2430  -29.7010 N   0  0  0  0  0  0  0  0  0  0  0  0
  -33.4860   14.6410  -30.3660 C   0  0  0  0  0  0  0  0  0  0  0  0
  -32.7690   15.8390  -29.6890 C   0  0  0  0  0  0  0  0  0  0  0  0
  -35.9850   14.7730  -30.2510 C   0  0  0  0  0  0  0  0  0  0  0  0
  -36.8850   15.4770  -29.4610 C   0  0  0  0  0  0  0  0  0  0  0  0
  -38.0460   15.9880  -30.0440 C   0  0  0  0  0  0  0  0  0  0  0  0
  -38.2830   15.7940  -31.3630 N   0  0  0  0  0  0  0  0  0  0  0  0
  -37.4450   15.1020  -32.1350 N   0  0  0  0  0  0  0  0  0  0  0  0
  -36.3340   14.5850  -31.6090 C   0  0  0  0  0  0  0  0  0  0  0  0
  -35.5810   13.8070  -32.4610 N   0  0  0  0  0  0  0  0  0  0  0  0
  -39.0290   16.7260  -29.2540 C   0  0  0  0  0  0  0  0  0  0  0  0
  -40.4110   16.4790  -29.3620 C   0  0  0  0  0  0  0  0  0  0  0  0
  -41.3370   17.1400  -28.5650 C   0  0  0  0  0  0  0  0  0  0  0  0
  -40.9000   18.0910  -27.6500 C   0  0  0  0  0  0  0  0  0  0  0  0
  -39.5410   18.3760  -27.5400 C   0  0  0  0  0  0  0  0  0  0  0  0
  -38.6160   17.7040  -28.3340 C   0  0  0  0  0  0  0  0  0  0  0  0
  -40.8950   15.5750  -30.2620 O   0  0  0  0  0  0  0  0  0  0  0  0
  -29.0600   14.7300  -33.7370 H   0  0  0  0  0  0  0  0  0  0  0  0
  -29.1240   17.9020  -30.3240 H   0  0  0  0  0  0  0  0  0  0  0  0
  -27.9000   16.7190  -29.8020 H   0  0  0  0  0  0  0  0  0  0  0  0
  -29.6310   16.3170  -29.6930 H   0  0  0  0  0  0  0  0  0  0  0  0
  -30.3300   17.6640  -32.3920 H   0  0  0  0  0  0  0  0  0  0  0  0
  -30.9790   16.0770  -31.9140 H   0  0  0  0  0  0  0  0  0  0  0  0
  -30.1070   16.2550  -33.4550 H   0  0  0  0  0  0  0  0  0  0  0  0
  -27.9720   18.0930  -32.4740 H   0  0  0  0  0  0  0  0  0  0  0  0
  -27.6500   16.6580  -33.4770 H   0  0  0  0  0  0  0  0  0  0  0  0
  -26.7700   16.8900  -31.9470 H   0  0  0  0  0  0  0  0  0  0  0  0
  -30.0010   11.6760  -29.4510 H   0  0  0  0  0  0  0  0  0  0  0  0
  -26.7240   13.6300  -28.7840 H   0  0  0  0  0  0  0  0  0  0  0  0
  -26.6980   13.1820  -30.5070 H   0  0  0  0  0  0  0  0  0  0  0  0
  -30.5630   12.5310  -20.9420 H   0  0  0  0  0  0  0  0  0  0  0  0
  -28.9320   10.9880  -25.3450 H   0  0  0  0  0  0  0  0  0  0  0  0
  -25.5000   11.2320  -18.5690 H   0  0  0  0  0  0  0  0  0  0  0  0
  -27.4290   14.6590  -31.3700 H   0  0  0  0  0  0  0  0  0  0  0  0
  -28.5020   10.3270  -28.1190 H   0  0  0  0  0  0  0  0  0  0  0  0
  -27.9240   11.7400  -27.2040 H   0  0  0  0  0  0  0  0  0  0  0  0
  -26.0470   11.2730  -28.7740 H   0  0  0  0  0  0  0  0  0  0  0  0
  -28.1080   10.8540  -30.6260 H   0  0  0  0  0  0  0  0  0  0  0  0
  -30.7060   10.8960  -27.0370 H   0  0  0  0  0  0  0  0  0  0  0  0
  -32.3160   11.7080  -25.4250 H   0  0  0  0  0  0  0  0  0  0  0  0
  -31.6010   13.3320  -25.5670 H   0  0  0  0  0  0  0  0  0  0  0  0
  -27.5730   10.6140  -23.3340 H   0  0  0  0  0  0  0  0  0  0  0  0
  -30.5530   10.3810  -20.0930 H   0  0  0  0  0  0  0  0  0  0  0  0
  -30.2800   10.8220  -18.3900 H   0  0  0  0  0  0  0  0  0  0  0  0
  -29.8230    9.2040  -18.9750 H   0  0  0  0  0  0  0  0  0  0  0  0
  -26.7110   11.0340  -34.9530 H   0  0  0  0  0  0  0  0  0  0  0  0
  -27.3420   11.5480  -36.5370 H   0  0  0  0  0  0  0  0  0  0  0  0
  -29.7300   10.8470  -35.8140 H   0  0  0  0  0  0  0  0  0  0  0  0
  -29.1000   10.3340  -34.2300 H   0  0  0  0  0  0  0  0  0  0  0  0
  -32.4350   13.5170  -20.9430 H   0  0  0  0  0  0  0  0  0  0  0  0
  -33.6450   14.2220  -22.0410 H   0  0  0  0  0  0  0  0  0  0  0  0
  -30.7630   15.1060  -21.6440 H   0  0  0  0  0  0  0  0  0  0  0  0
  -32.2430   16.0120  -21.2490 H   0  0  0  0  0  0  0  0  0  0  0  0
  -33.7990   17.6080  -25.4720 H   0  0  0  0  0  0  0  0  0  0  0  0
  -33.7000   16.8690  -23.1200 H   0  0  0  0  0  0  0  0  0  0  0  0
  -29.8390   15.1670  -23.8170 H   0  0  0  0  0  0  0  0  0  0  0  0
  -29.9350   15.9080  -26.1650 H   0  0  0  0  0  0  0  0  0  0  0  0
  -31.0800   17.1810  -27.9040 H   0  0  0  0  0  0  0  0  0  0  0  0
  -32.7250   17.8060  -27.6430 H   0  0  0  0  0  0  0  0  0  0  0  0
  -31.9030   15.0590  -28.0300 H   0  0  0  0  0  0  0  0  0  0  0  0
  -34.6220   16.0250  -27.4600 H   0  0  0  0  0  0  0  0  0  0  0  0
  -33.6470   14.8780  -26.5090 H   0  0  0  0  0  0  0  0  0  0  0  0
  -35.5670   13.8660  -27.7950 H   0  0  0  0  0  0  0  0  0  0  0  0
  -33.9740   13.1330  -28.1000 H   0  0  0  0  0  0  0  0  0  0  0  0
  -33.7060   14.9120  -31.3980 H   0  0  0  0  0  0  0  0  0  0  0  0
  -32.8110   13.7850  -30.3510 H   0  0  0  0  0  0  0  0  0  0  0  0
  -31.7680   15.9160  -30.1140 H   0  0  0  0  0  0  0  0  0  0  0  0
  -33.3330   16.7430  -29.9200 H   0  0  0  0  0  0  0  0  0  0  0  0
  -36.6890   15.6270  -28.4100 H   0  0  0  0  0  0  0  0  0  0  0  0
  -35.8840   13.6620  -33.4130 H   0  0  0  0  0  0  0  0  0  0  0  0
  -34.7260   13.3820  -32.1330 H   0  0  0  0  0  0  0  0  0  0  0  0
  -42.3900   16.9170  -28.6560 H   0  0  0  0  0  0  0  0  0  0  0  0
  -41.6130   18.6080  -27.0250 H   0  0  0  0  0  0  0  0  0  0  0  0
  -39.2030   19.1220  -26.8350 H   0  0  0  0  0  0  0  0  0  0  0  0
  -37.5660   17.9380  -28.2410 H   0  0  0  0  0  0  0  0  0  0  0  0
  -41.8500   15.4750  -30.2630 H   0  0  0  0  0  0  0  0  0  0  0  0
  1 15  1  0  0  0  0
  1 31  1  0  0  0  0
  1 67  1  0  0  0  0
  2 15  1  0  0  0  0
  2 17  1  0  0  0  0
  2 18  2  0  0  0  0
  3 16  1  0  0  0  0
  3 68  1  0  0  0  0
  3 69  1  0  0  0  0
  3 70  1  0  0  0  0
  4 16  1  0  0  0  0
  4 71  1  0  0  0  0
  4 72  1  0  0  0  0
  4 73  1  0  0  0  0
  5 16  1  0  0  0  0
  5 74  1  0  0  0  0
  5 75  1  0  0  0  0
  5 76  1  0  0  0  0
  6  8  1  0  0  0  0
  6 17  1  0  0  0  0
  6 19  1  0  0  0  0
  6 77  1  0  0  0  0
  7 17  1  0  0  0  0
  7 20  1  0  0  0  0
  7 78  1  0  0  0  0
  7 79  1  0  0  0  0
  8 22  2  0  0  0  0
  8 23  1  0  0  0  0
  9 10  2  0  0  0  0
  9 25  1  0  0  0  0
  9 37  1  0  0  0  0
 10 11  1  0  0  0  0
 10 80  1  0  0  0  0
 11 26  2  0  0  0  0
 11 27  1  0  0  0  0
 12 25  2  0  0  0  0
 12 26  1  0  0  0  0
 12 81  1  0  0  0  0
 13 27  2  0  0  0  0
 13 28  1  0  0  0  0
 13 30  1  0  0  0  0
 14 28  2  0  0  0  0
 14 29  1  0  0  0  0
 14 82  1  0  0  0  0
 15 16  1  0  0  0  0
 15 83  1  0  0  0  0
 19 20  1  0  0  0  0
 19 84  1  0  0  0  0
 19 85  1  0  0  0  0
 20 21  1  0  0  0  0
 20 86  1  0  0  0  0
 21 87  1  0  0  0  0
 23 24  1  0  0  0  0
 23 88  1  0  0  0  0
 24 25  1  0  0  0  0
 24 89  1  0  0  0  0
 24 90  1  0  0  0  0
 26 91  1  0  0  0  0
 27 29  1  0  0  0  0
 30 92  1  0  0  0  0
 30 93  1  0  0  0  0
 30 94  1  0  0  0  0
 31 32  1  0  0  0  0
 31 33  2  0  0  0  0
 32 34  1  0  0  0  0
 32 35  1  0  0  0  0
 32 36  1  0  0  0  0
 35 36  1  0  0  0  0
 35 95  1  0  0  0  0
 35 96  1  0  0  0  0
 36 97  1  0  0  0  0
 36 98  1  0  0  0  0
 37 38  1  0  0  0  0
 38 39  1  0  0  0  0
 38 99  1  0  0  0  0
 38100  1  0  0  0  0
 39 43  1  0  0  0  0
 39101  1  0  0  0  0
 39102  1  0  0  0  0
 40 41  1  0  0  0  0
 40 45  2  0  0  0  0
 40 46  1  0  0  0  0
 41 42  2  0  0  0  0
 41103  1  0  0  0  0
 42 43  1  0  0  0  0
 42104  1  0  0  0  0
 43 44  2  0  0  0  0
 44 45  1  0  0  0  0
 44105  1  0  0  0  0
 45106  1  0  0  0  0
 46 47  1  0  0  0  0
 46107  1  0  0  0  0
 46108  1  0  0  0  0
 47 48  1  0  0  0  0
 47 52  1  0  0  0  0
 47109  1  0  0  0  0
 48 49  1  0  0  0  0
 48110  1  0  0  0  0
 48111  1  0  0  0  0
 49 50  1  0  0  0  0
 49112  1  0  0  0  0
 49113  1  0  0  0  0
 50 51  1  0  0  0  0
 50 53  1  0  0  0  0
 51 52  1  0  0  0  0
 51114  1  0  0  0  0
 51115  1  0  0  0  0
 52116  1  0  0  0  0
 52117  1  0  0  0  0
 53 54  1  0  0  0  0
 53 58  2  0  0  0  0
 54 55  2  0  0  0  0
 54118  1  0  0  0  0
 55 56  1  0  0  0  0
 55 60  1  0  0  0  0
 56 57  2  0  0  0  0
 57 58  1  0  0  0  0
 58 59  1  0  0  0  0
 59119  1  0  0  0  0
 59120  1  0  0  0  0
 60 61  1  0  0  0  0
 60 65  2  0  0  0  0
 61 62  2  0  0  0  0
 61 66  1  0  0  0  0
 62 63  1  0  0  0  0
 62121  1  0  0  0  0
 63 64  2  0  0  0  0
 63122  1  0  0  0  0
 64 65  1  0  0  0  0
 64123  1  0  0  0  0
 65124  1  0  0  0  0
 66125  1  0  0  0  0
M  CHG  1  47   1
M  END
$$$$
p3
  MOE2018           3D

122128  0  0  1  0  0  0  0  0999 V2000
  -28.7940   14.4220  -33.1230 N   0  0  0  0  0  0  0  0  0  0  0  0
  -29.2930   14.1500  -30.6770 C   0  0  0  0  0  0  0  0  0  0  0  0
  -29.4880   17.1330  -30.4810 C   0  0  0  0  0  0  0  0  0  0  0  0
  -30.8650   16.4640  -32.4700 C   0  0  0  0  0  0  0  0  0  0  0  0
  -28.6040   17.4300  -32.7680 C   0  0  0  0  0  0  0  0  0  0  0  0
  -28.8820   12.5190  -28.8960 C   0  0  3  0  0  0  0  0  0  0  0  0
  -27.0170   13.8070  -29.6330 C   0  0  0  0  0  0  0  0  0  0  0  0
  -29.9930   12.7580  -27.8390 C   0  0  0  0  0  0  0  0  0  0  0  0
  -31.3740   12.4000  -23.7280 C   0  0  0  0  0  0  0  0  0  0  0  0
  -30.8540   12.2710  -22.4410 C   0  0  0  0  0  0  0  0  0  0  0  0
  -29.7940   11.3940  -22.1940 C   0  0  0  0  0  0  0  0  0  0  0  0
  -29.8200   10.7590  -24.5380 C   0  0  0  0  0  0  0  0  0  0  0  0
  -29.8580   11.0600  -19.6580 C   0  0  0  0  0  0  0  0  0  0  0  0
  -27.8010   11.1620  -18.9200 C   0  0  0  0  0  0  0  0  0  0  0  0
  -28.7470   15.0820  -31.8100 C   0  0  3  0  0  0  0  0  0  0  0  0
  -29.4380   16.4830  -31.8790 C   0  0  0  0  0  0  0  0  0  0  0  0
  -28.4740   13.6750  -29.7140 N   0  0  0  0  0  0  0  0  0  0  0  0
  -30.4900   13.8450  -30.6570 O   0  0  0  0  0  0  0  0  0  0  0  0
  -27.5960   11.9860  -28.2520 C   0  0  0  0  0  0  0  0  0  0  0  0
  -26.5080   12.4270  -29.2180 C   0  0  3  0  0  0  0  0  0  0  0  0
  -26.4720   11.5260  -30.3090 O   0  0  0  0  0  0  0  0  0  0  0  0
  -30.3520   13.8900  -27.5100 O   0  0  0  0  0  0  0  0  0  0  0  0
  -30.5340   11.6760  -27.2690 N   0  0  0  0  0  0  0  0  0  0  0  0
  -31.4940   11.7440  -26.1700 C   0  0  0  0  0  0  0  0  0  0  0  0
  -30.8730   11.6390  -24.7900 C   0  0  0  0  0  0  0  0  0  0  0  0
  -29.2820   10.6450  -23.2600 C   0  0  0  0  0  0  0  0  0  0  0  0
  -29.2250   11.2650  -20.8580 C   0  0  0  0  0  0  0  0  0  0  0  0
  -29.0460   11.0120  -18.5720 N   0  0  0  0  0  0  0  0  0  0  0  0
  -27.5320   11.3740  -20.6040 S   0  0  0  0  0  0  0  0  0  0  0  0
  -31.3470   10.8890  -19.4790 C   0  0  0  0  0  0  0  0  0  0  0  0
  -28.0310   13.3440  -33.4510 C   0  0  0  0  0  0  0  0  0  0  0  0
  -28.2410   12.6970  -34.8260 C   0  0  0  0  0  0  0  0  0  0  0  0
  -27.2270   12.9310  -32.6290 O   0  0  0  0  0  0  0  0  0  0  0  0
  -28.9640   13.4590  -35.7020 F   0  0  0  0  0  0  0  0  0  0  0  0
  -27.1850   11.8370  -35.4650 C   0  0  0  0  0  0  0  0  0  0  0  0
  -28.4560   11.2150  -34.9640 C   0  0  0  0  0  0  0  0  0  0  0  0
  -32.4030   13.2900  -23.9900 O   0  0  0  0  0  0  0  0  0  0  0  0
  -32.9090   14.3510  -23.1300 C   0  0  0  0  0  0  0  0  0  0  0  0
  -31.8750   15.4390  -22.8020 C   0  0  0  0  0  0  0  0  0  0  0  0
  -31.0420   15.8870  -24.0030 C   0  0  0  0  0  0  0  0  0  0  0  0
  -31.1420   16.8260  -26.1580 C   0  0  0  0  0  0  0  0  0  0  0  0
  -31.8910   16.3370  -25.0500 O   0  0  0  0  0  0  0  0  0  0  0  0
  -31.9790   16.8390  -27.4490 C   0  0  0  0  0  0  0  0  0  0  0  0
  -32.5830   15.5040  -27.8380 N   0  3  0  0  0  0  0  0  0  0  0  0
  -33.7840   15.0980  -26.9820 C   0  0  0  0  0  0  0  0  0  0  0  0
  -34.5480   13.8270  -27.4410 C   0  0  0  0  0  0  0  0  0  0  0  0
  -34.7990   13.7430  -28.9110 N   0  0  0  0  0  0  0  0  0  0  0  0
  -33.5620   14.0150  -29.7130 C   0  0  0  0  0  0  0  0  0  0  0  0
  -32.8690   15.3400  -29.3270 C   0  0  0  0  0  0  0  0  0  0  0  0
  -36.0350   14.2180  -29.4800 C   0  0  0  0  0  0  0  0  0  0  0  0
  -36.8500   15.1130  -28.7950 C   0  0  0  0  0  0  0  0  0  0  0  0
  -38.0280   15.5600  -29.3980 C   0  0  0  0  0  0  0  0  0  0  0  0
  -38.3640   15.1210  -30.6330 N   0  0  0  0  0  0  0  0  0  0  0  0
  -37.6110   14.2460  -31.2990 N   0  0  0  0  0  0  0  0  0  0  0  0
  -36.4870   13.7850  -30.7500 C   0  0  0  0  0  0  0  0  0  0  0  0
  -35.8260   12.8210  -31.4790 N   0  0  0  0  0  0  0  0  0  0  0  0
  -38.9220   16.4950  -28.7160 C   0  0  0  0  0  0  0  0  0  0  0  0
  -40.3200   16.3220  -28.7110 C   0  0  0  0  0  0  0  0  0  0  0  0
  -41.1620   17.1800  -28.0140 C   0  0  0  0  0  0  0  0  0  0  0  0
  -40.6220   18.2560  -27.3200 C   0  0  0  0  0  0  0  0  0  0  0  0
  -39.2460   18.4680  -27.3280 C   0  0  0  0  0  0  0  0  0  0  0  0
  -38.4050   17.6000  -28.0200 C   0  0  0  0  0  0  0  0  0  0  0  0
  -40.9050   15.2980  -29.3980 O   0  0  0  0  0  0  0  0  0  0  0  0
  -29.4270   14.7890  -33.8190 H   0  0  0  0  0  0  0  0  0  0  0  0
  -29.9720   18.1070  -30.5500 H   0  0  0  0  0  0  0  0  0  0  0  0
  -28.4740   17.2580  -30.1020 H   0  0  0  0  0  0  0  0  0  0  0  0
  -30.0530   16.4940  -29.8030 H   0  0  0  0  0  0  0  0  0  0  0  0
  -31.2680   17.4770  -32.4800 H   0  0  0  0  0  0  0  0  0  0  0  0
  -31.5030   15.8250  -31.8590 H   0  0  0  0  0  0  0  0  0  0  0  0
  -30.8310   16.0760  -33.4880 H   0  0  0  0  0  0  0  0  0  0  0  0
  -29.0880   18.4050  -32.8140 H   0  0  0  0  0  0  0  0  0  0  0  0
  -28.5290   17.0140  -33.7730 H   0  0  0  0  0  0  0  0  0  0  0  0
  -27.6050   17.5400  -32.3450 H   0  0  0  0  0  0  0  0  0  0  0  0
  -29.3670   11.8020  -29.5580 H   0  0  0  0  0  0  0  0  0  0  0  0
  -26.7420   14.5550  -28.8890 H   0  0  0  0  0  0  0  0  0  0  0  0
  -26.6050   14.0900  -30.6020 H   0  0  0  0  0  0  0  0  0  0  0  0
  -31.2720   12.8510  -21.6310 H   0  0  0  0  0  0  0  0  0  0  0  0
  -29.4190   10.1610  -25.3430 H   0  0  0  0  0  0  0  0  0  0  0  0
  -26.9940   11.1540  -18.2020 H   0  0  0  0  0  0  0  0  0  0  0  0
  -27.7080   15.2690  -31.5400 H   0  0  0  0  0  0  0  0  0  0  0  0
  -27.6240   10.9000  -28.1660 H   0  0  0  0  0  0  0  0  0  0  0  0
  -27.4430   12.4250  -27.2660 H   0  0  0  0  0  0  0  0  0  0  0  0
  -25.4950   12.4500  -28.8150 H   0  0  0  0  0  0  0  0  0  0  0  0
  -27.3550   11.4870  -30.6830 H   0  0  0  0  0  0  0  0  0  0  0  0
  -30.2650   10.7660  -27.6160 H   0  0  0  0  0  0  0  0  0  0  0  0
  -32.2050   10.9260  -26.2870 H   0  0  0  0  0  0  0  0  0  0  0  0
  -32.0210   12.6960  -26.2360 H   0  0  0  0  0  0  0  0  0  0  0  0
  -28.4580    9.9690  -23.0880 H   0  0  0  0  0  0  0  0  0  0  0  0
  -31.8400   10.9550  -20.4490 H   0  0  0  0  0  0  0  0  0  0  0  0
  -31.7270   11.6730  -18.8240 H   0  0  0  0  0  0  0  0  0  0  0  0
  -31.5500    9.9150  -19.0340 H   0  0  0  0  0  0  0  0  0  0  0  0
  -26.2450   11.6510  -34.9450 H   0  0  0  0  0  0  0  0  0  0  0  0
  -26.9990   11.9090  -36.5370 H   0  0  0  0  0  0  0  0  0  0  0  0
  -29.1920   10.8350  -35.6720 H   0  0  0  0  0  0  0  0  0  0  0  0
  -28.4390   10.5770  -34.0800 H   0  0  0  0  0  0  0  0  0  0  0  0
  -33.2430   13.9030  -22.1940 H   0  0  0  0  0  0  0  0  0  0  0  0
  -33.7550   14.8220  -23.6300 H   0  0  0  0  0  0  0  0  0  0  0  0
  -31.1980   15.0500  -22.0410 H   0  0  0  0  0  0  0  0  0  0  0  0
  -32.4040   16.3070  -22.4090 H   0  0  0  0  0  0  0  0  0  0  0  0
  -30.4450   15.0480  -24.3600 H   0  0  0  0  0  0  0  0  0  0  0  0
  -30.3820   16.7000  -23.7000 H   0  0  0  0  0  0  0  0  0  0  0  0
  -30.2730   16.1860  -26.3070 H   0  0  0  0  0  0  0  0  0  0  0  0
  -30.8120   17.8420  -25.9410 H   0  0  0  0  0  0  0  0  0  0  0  0
  -31.3360   17.1690  -28.2650 H   0  0  0  0  0  0  0  0  0  0  0  0
  -32.7930   17.5520  -27.3170 H   0  0  0  0  0  0  0  0  0  0  0  0
  -31.8420   14.8490  -27.6310 H   0  0  0  0  0  0  0  0  0  0  0  0
  -34.4890   15.9290  -26.9810 H   0  0  0  0  0  0  0  0  0  0  0  0
  -33.4270   14.9240  -25.9670 H   0  0  0  0  0  0  0  0  0  0  0  0
  -35.5110   13.8080  -26.9310 H   0  0  0  0  0  0  0  0  0  0  0  0
  -33.9640   12.9550  -27.1470 H   0  0  0  0  0  0  0  0  0  0  0  0
  -33.8350   14.0610  -30.7670 H   0  0  0  0  0  0  0  0  0  0  0  0
  -32.8590   13.1970  -29.5550 H   0  0  0  0  0  0  0  0  0  0  0  0
  -31.9210   15.3950  -29.8620 H   0  0  0  0  0  0  0  0  0  0  0  0
  -33.5120   16.1620  -29.6410 H   0  0  0  0  0  0  0  0  0  0  0  0
  -36.5750   15.4580  -27.8090 H   0  0  0  0  0  0  0  0  0  0  0  0
  -36.2010   12.5120  -32.3650 H   0  0  0  0  0  0  0  0  0  0  0  0
  -34.9670   12.4230  -31.1280 H   0  0  0  0  0  0  0  0  0  0  0  0
  -42.2290   17.0120  -28.0120 H   0  0  0  0  0  0  0  0  0  0  0  0
  -41.2690   18.9270  -26.7750 H   0  0  0  0  0  0  0  0  0  0  0  0
  -38.8290   19.3100  -26.7950 H   0  0  0  0  0  0  0  0  0  0  0  0
  -37.3400   17.7790  -28.0210 H   0  0  0  0  0  0  0  0  0  0  0  0
  -41.8620   15.2630  -29.3360 H   0  0  0  0  0  0  0  0  0  0  0  0
  1 15  1  0  0  0  0
  1 31  1  0  0  0  0
  1 64  1  0  0  0  0
  2 15  1  0  0  0  0
  2 17  1  0  0  0  0
  2 18  2  0  0  0  0
  3 16  1  0  0  0  0
  3 65  1  0  0  0  0
  3 66  1  0  0  0  0
  3 67  1  0  0  0  0
  4 16  1  0  0  0  0
  4 68  1  0  0  0  0
  4 69  1  0  0  0  0
  4 70  1  0  0  0  0
  5 16  1  0  0  0  0
  5 71  1  0  0  0  0
  5 72  1  0  0  0  0
  5 73  1  0  0  0  0
  6  8  1  0  0  0  0
  6 17  1  0  0  0  0
  6 19  1  0  0  0  0
  6 74  1  0  0  0  0
  7 17  1  0  0  0  0
  7 20  1  0  0  0  0
  7 75  1  0  0  0  0
  7 76  1  0  0  0  0
  8 22  2  0  0  0  0
  8 23  1  0  0  0  0
  9 10  2  0  0  0  0
  9 25  1  0  0  0  0
  9 37  1  0  0  0  0
 10 11  1  0  0  0  0
 10 77  1  0  0  0  0
 11 26  2  0  0  0  0
 11 27  1  0  0  0  0
 12 25  2  0  0  0  0
 12 26  1  0  0  0  0
 12 78  1  0  0  0  0
 13 27  2  0  0  0  0
 13 28  1  0  0  0  0
 13 30  1  0  0  0  0
 14 28  2  0  0  0  0
 14 29  1  0  0  0  0
 14 79  1  0  0  0  0
 15 16  1  0  0  0  0
 15 80  1  0  0  0  0
 19 20  1  0  0  0  0
 19 81  1  0  0  0  0
 19 82  1  0  0  0  0
 20 21  1  0  0  0  0
 20 83  1  0  0  0  0
 21 84  1  0  0  0  0
 23 24  1  0  0  0  0
 23 85  1  0  0  0  0
 24 25  1  0  0  0  0
 24 86  1  0  0  0  0
 24 87  1  0  0  0  0
 26 88  1  0  0  0  0
 27 29  1  0  0  0  0
 30 89  1  0  0  0  0
 30 90  1  0  0  0  0
 30 91  1  0  0  0  0
 31 32  1  0  0  0  0
 31 33  2  0  0  0  0
 32 34  1  0  0  0  0
 32 35  1  0  0  0  0
 32 36  1  0  0  0  0
 35 36  1  0  0  0  0
 35 92  1  0  0  0  0
 35 93  1  0  0  0  0
 36 94  1  0  0  0  0
 36 95  1  0  0  0  0
 37 38  1  0  0  0  0
 38 39  1  0  0  0  0
 38 96  1  0  0  0  0
 38 97  1  0  0  0  0
 39 40  1  0  0  0  0
 39 98  1  0  0  0  0
 39 99  1  0  0  0  0
 40 42  1  0  0  0  0
 40100  1  0  0  0  0
 40101  1  0  0  0  0
 41 42  1  0  0  0  0
 41 43  1  0  0  0  0
 41102  1  0  0  0  0
 41103  1  0  0  0  0
 43 44  1  0  0  0  0
 43104  1  0  0  0  0
 43105  1  0  0  0  0
 44 45  1  0  0  0  0
 44 49  1  0  0  0  0
 44106  1  0  0  0  0
 45 46  1  0  0  0  0
 45107  1  0  0  0  0
 45108  1  0  0  0  0
 46 47  1  0  0  0  0
 46109  1  0  0  0  0
 46110  1  0  0  0  0
 47 48  1  0  0  0  0
 47 50  1  0  0  0  0
 48 49  1  0  0  0  0
 48111  1  0  0  0  0
 48112  1  0  0  0  0
 49113  1  0  0  0  0
 49114  1  0  0  0  0
 50 51  1  0  0  0  0
 50 55  2  0  0  0  0
 51 52  2  0  0  0  0
 51115  1  0  0  0  0
 52 53  1  0  0  0  0
 52 57  1  0  0  0  0
 53 54  2  0  0  0  0
 54 55  1  0  0  0  0
 55 56  1  0  0  0  0
 56116  1  0  0  0  0
 56117  1  0  0  0  0
 57 58  1  0  0  0  0
 57 62  2  0  0  0  0
 58 59  2  0  0  0  0
 58 63  1  0  0  0  0
 59 60  1  0  0  0  0
 59118  1  0  0  0  0
 60 61  2  0  0  0  0
 60119  1  0  0  0  0
 61 62  1  0  0  0  0
 61120  1  0  0  0  0
 62121  1  0  0  0  0
 63122  1  0  0  0  0
M  CHG  1  44   1
M  END
$$$$
p4
  MOE2018           3D

125131  0  0  1  0  0  0  0  0999 V2000
  -29.7360   15.3570  -31.9320 N   0  0  0  0  0  0  0  0  0  0  0  0
  -30.2560   14.5600  -29.6090 C   0  0  0  0  0  0  0  0  0  0  0  0
  -27.7420   16.0900  -28.7410 C   0  0  0  0  0  0  0  0  0  0  0  0
  -29.3600   17.6220  -29.8610 C   0  0  0  0  0  0  0  0  0  0  0  0
  -27.3310   16.8280  -31.0630 C   0  0  0  0  0  0  0  0  0  0  0  0
  -31.2830   12.6340  -28.4350 C   0  0  3  0  0  0  0  0  0  0  0  0
  -29.1180   12.3310  -29.4080 C   0  0  0  0  0  0  0  0  0  0  0  0
  -31.8230   13.1860  -27.0790 C   0  0  0  0  0  0  0  0  0  0  0  0
  -30.9290   12.7650  -23.2620 C   0  0  0  0  0  0  0  0  0  0  0  0
  -30.0220   12.1340  -22.4100 C   0  0  0  0  0  0  0  0  0  0  0  0
  -30.0590   10.7470  -22.2410 C   0  0  0  0  0  0  0  0  0  0  0  0
  -31.9220   10.6420  -23.7930 C   0  0  0  0  0  0  0  0  0  0  0  0
  -28.7760   10.3700  -20.0620 C   0  0  0  0  0  0  0  0  0  0  0  0
  -27.4480    8.6560  -20.3560 C   0  0  0  0  0  0  0  0  0  0  0  0
  -29.1750   15.1260  -30.5920 C   0  0  3  0  0  0  0  0  0  0  0  0
  -28.4400   16.4030  -30.0770 C   0  0  0  0  0  0  0  0  0  0  0  0
  -30.1360   13.3290  -29.0630 N   0  0  0  0  0  0  0  0  0  0  0  0
  -31.2800   15.2170  -29.4000 O   0  0  0  0  0  0  0  0  0  0  0  0
  -30.8480   11.1640  -28.3320 C   0  0  0  0  0  0  0  0  0  0  0  0
  -29.8650   11.0030  -29.4790 C   0  0  3  0  0  0  0  0  0  0  0  0
  -30.5850   10.8740  -30.6920 O   0  0  0  0  0  0  0  0  0  0  0  0
  -31.7040   14.3660  -26.7640 O   0  0  0  0  0  0  0  0  0  0  0  0
  -32.5450   12.3680  -26.3060 N   0  0  0  0  0  0  0  0  0  0  0  0
  -32.8640   12.6840  -24.9130 C   0  0  0  0  0  0  0  0  0  0  0  0
  -31.8870   12.0260  -23.9640 C   0  0  0  0  0  0  0  0  0  0  0  0
  -31.0190   10.0110  -22.9440 C   0  0  0  0  0  0  0  0  0  0  0  0
  -29.1130   10.0770  -21.3590 C   0  0  0  0  0  0  0  0  0  0  0  0
  -27.8320    9.5680  -19.5090 N   0  0  0  0  0  0  0  0  0  0  0  0
  -28.2160    8.7160  -21.8920 S   0  0  0  0  0  0  0  0  0  0  0  0
  -29.3740   11.4890  -19.2420 C   0  0  0  0  0  0  0  0  0  0  0  0
  -30.2530   14.3670  -32.7110 C   0  0  0  0  0  0  0  0  0  0  0  0
  -30.8250   14.7550  -34.0830 C   0  0  0  0  0  0  0  0  0  0  0  0
  -30.2350   13.2210  -32.2820 O   0  0  0  0  0  0  0  0  0  0  0  0
  -30.7360   16.0920  -34.3700 F   0  0  0  0  0  0  0  0  0  0  0  0
  -30.6800   13.8500  -35.2760 C   0  0  0  0  0  0  0  0  0  0  0  0
  -32.0330   14.0700  -34.6620 C   0  0  0  0  0  0  0  0  0  0  0  0
  -30.9030   14.1430  -23.4290 O   0  0  0  0  0  0  0  0  0  0  0  0
  -29.8870   15.0590  -22.9340 C   0  0  0  0  0  0  0  0  0  0  0  0
  -28.5710   14.9680  -23.7210 C   0  0  0  0  0  0  0  0  0  0  0  0
  -28.7080   15.4220  -25.1850 C   0  0  0  0  0  0  0  0  0  0  0  0
  -28.8260   16.9460  -25.3590 C   0  0  0  0  0  0  0  0  0  0  0  0
  -29.9000   17.3090  -26.2240 O   0  0  0  0  0  0  0  0  0  0  0  0
  -31.1640   17.3690  -25.5750 C   0  0  0  0  0  0  0  0  0  0  0  0
  -32.2290   17.9850  -26.4990 C   0  0  0  0  0  0  0  0  0  0  0  0
  -32.6900   17.1450  -27.6750 N   0  3  0  0  0  0  0  0  0  0  0  0
  -33.8600   16.2340  -27.3420 C   0  0  0  0  0  0  0  0  0  0  0  0
  -34.3870   15.3980  -28.5270 C   0  0  0  0  0  0  0  0  0  0  0  0
  -34.7000   16.2080  -29.7360 N   0  0  0  0  0  0  0  0  0  0  0  0
  -33.6000   17.1480  -30.1270 C   0  0  0  0  0  0  0  0  0  0  0  0
  -32.9870   17.9460  -28.9450 C   0  0  0  0  0  0  0  0  0  0  0  0
  -35.2080   15.4020  -30.7960 C   0  0  0  0  0  0  0  0  0  0  0  0
  -36.5680   15.4780  -31.0430 C   0  0  0  0  0  0  0  0  0  0  0  0
  -37.1260   14.6670  -32.0320 C   0  0  0  0  0  0  0  0  0  0  0  0
  -36.3310   13.8250  -32.7370 N   0  0  0  0  0  0  0  0  0  0  0  0
  -35.0190   13.7380  -32.5170 N   0  0  0  0  0  0  0  0  0  0  0  0
  -34.4500   14.4980  -31.5800 C   0  0  0  0  0  0  0  0  0  0  0  0
  -33.0920   14.3110  -31.4380 N   0  0  0  0  0  0  0  0  0  0  0  0
  -38.5620   14.6850  -32.3080 C   0  0  0  0  0  0  0  0  0  0  0  0
  -39.2940   13.5010  -32.5200 C   0  0  0  0  0  0  0  0  0  0  0  0
  -40.6680   13.5170  -32.7250 C   0  0  0  0  0  0  0  0  0  0  0  0
  -41.3460   14.7300  -32.7420 C   0  0  0  0  0  0  0  0  0  0  0  0
  -40.6440   15.9190  -32.5560 C   0  0  0  0  0  0  0  0  0  0  0  0
  -39.2690   15.8980  -32.3440 C   0  0  0  0  0  0  0  0  0  0  0  0
  -38.6730   12.2870  -32.5300 O   0  0  0  0  0  0  0  0  0  0  0  0
  -29.7380   16.3000  -32.2940 H   0  0  0  0  0  0  0  0  0  0  0  0
  -27.2290   16.9820  -28.3820 H   0  0  0  0  0  0  0  0  0  0  0  0
  -27.0180   15.2890  -28.8880 H   0  0  0  0  0  0  0  0  0  0  0  0
  -28.4850   15.7780  -28.0070 H   0  0  0  0  0  0  0  0  0  0  0  0
  -28.7690   18.4650  -29.5030 H   0  0  0  0  0  0  0  0  0  0  0  0
  -30.1240   17.3750  -29.1240 H   0  0  0  0  0  0  0  0  0  0  0  0
  -29.8380   17.8880  -30.8040 H   0  0  0  0  0  0  0  0  0  0  0  0
  -26.8310   17.7200  -30.6850 H   0  0  0  0  0  0  0  0  0  0  0  0
  -27.7730   17.0440  -32.0360 H   0  0  0  0  0  0  0  0  0  0  0  0
  -26.6060   16.0210  -31.1640 H   0  0  0  0  0  0  0  0  0  0  0  0
  -32.1580   12.7980  -29.0640 H   0  0  0  0  0  0  0  0  0  0  0  0
  -28.3440   12.2940  -28.6410 H   0  0  0  0  0  0  0  0  0  0  0  0
  -28.6640   12.5660  -30.3710 H   0  0  0  0  0  0  0  0  0  0  0  0
  -29.2870   12.7200  -21.8780 H   0  0  0  0  0  0  0  0  0  0  0  0
  -32.6570   10.0550  -24.3250 H   0  0  0  0  0  0  0  0  0  0  0  0
  -26.7010    7.9160  -20.1110 H   0  0  0  0  0  0  0  0  0  0  0  0
  -28.4140   14.3480  -30.6510 H   0  0  0  0  0  0  0  0  0  0  0  0
  -31.7010   10.4960  -28.4530 H   0  0  0  0  0  0  0  0  0  0  0  0
  -30.3650   10.9670  -27.3750 H   0  0  0  0  0  0  0  0  0  0  0  0
  -29.2110   10.1330  -29.4250 H   0  0  0  0  0  0  0  0  0  0  0  0
  -31.1710   11.6310  -30.7640 H   0  0  0  0  0  0  0  0  0  0  0  0
  -32.8830   11.5000  -26.6980 H   0  0  0  0  0  0  0  0  0  0  0  0
  -33.8700   12.3290  -24.6900 H   0  0  0  0  0  0  0  0  0  0  0  0
  -32.8210   13.7640  -24.7750 H   0  0  0  0  0  0  0  0  0  0  0  0
  -31.0590    8.9380  -22.8260 H   0  0  0  0  0  0  0  0  0  0  0  0
  -30.1090   12.0260  -19.8410 H   0  0  0  0  0  0  0  0  0  0  0  0
  -28.5850   12.1750  -18.9340 H   0  0  0  0  0  0  0  0  0  0  0  0
  -29.8590   11.0730  -18.3590 H   0  0  0  0  0  0  0  0  0  0  0  0
  -30.1840   12.8850  -35.1710 H   0  0  0  0  0  0  0  0  0  0  0  0
  -30.4510   14.2710  -36.2550 H   0  0  0  0  0  0  0  0  0  0  0  0
  -32.7850   14.6510  -35.1950 H   0  0  0  0  0  0  0  0  0  0  0  0
  -32.5190   13.2650  -34.1110 H   0  0  0  0  0  0  0  0  0  0  0  0
  -29.6850   14.8240  -21.8890 H   0  0  0  0  0  0  0  0  0  0  0  0
  -30.2690   16.0770  -23.0100 H   0  0  0  0  0  0  0  0  0  0  0  0
  -28.2310   13.9320  -23.7100 H   0  0  0  0  0  0  0  0  0  0  0  0
  -27.8300   15.5990  -23.2310 H   0  0  0  0  0  0  0  0  0  0  0  0
  -29.6010   14.9590  -25.6050 H   0  0  0  0  0  0  0  0  0  0  0  0
  -27.8300   15.0810  -25.7330 H   0  0  0  0  0  0  0  0  0  0  0  0
  -27.8940   17.3240  -25.7790 H   0  0  0  0  0  0  0  0  0  0  0  0
  -28.9940   17.3990  -24.3820 H   0  0  0  0  0  0  0  0  0  0  0  0
  -31.0750   17.9800  -24.6770 H   0  0  0  0  0  0  0  0  0  0  0  0
  -31.4720   16.3600  -25.2990 H   0  0  0  0  0  0  0  0  0  0  0  0
  -31.8210   18.9130  -26.8980 H   0  0  0  0  0  0  0  0  0  0  0  0
  -33.1050   18.2060  -25.8890 H   0  0  0  0  0  0  0  0  0  0  0  0
  -31.8880   16.5650  -27.8750 H   0  0  0  0  0  0  0  0  0  0  0  0
  -34.6780   16.8530  -26.9740 H   0  0  0  0  0  0  0  0  0  0  0  0
  -33.5420   15.5470  -26.5570 H   0  0  0  0  0  0  0  0  0  0  0  0
  -35.2960   14.8860  -28.2100 H   0  0  0  0  0  0  0  0  0  0  0  0
  -33.6290   14.6610  -28.7930 H   0  0  0  0  0  0  0  0  0  0  0  0
  -34.0010   17.8610  -30.8480 H   0  0  0  0  0  0  0  0  0  0  0  0
  -32.8050   16.5670  -30.5940 H   0  0  0  0  0  0  0  0  0  0  0  0
  -32.0500   18.3840  -29.2890 H   0  0  0  0  0  0  0  0  0  0  0  0
  -33.6850   18.7410  -28.6820 H   0  0  0  0  0  0  0  0  0  0  0  0
  -37.1890   16.1560  -30.4770 H   0  0  0  0  0  0  0  0  0  0  0  0
  -32.6110   13.6400  -32.0200 H   0  0  0  0  0  0  0  0  0  0  0  0
  -32.5780   14.8450  -30.7520 H   0  0  0  0  0  0  0  0  0  0  0  0
  -41.2060   12.5920  -32.8700 H   0  0  0  0  0  0  0  0  0  0  0  0
  -42.4140   14.7510  -32.8990 H   0  0  0  0  0  0  0  0  0  0  0  0
  -41.1700   16.8620  -32.5760 H   0  0  0  0  0  0  0  0  0  0  0  0
  -38.7380   16.8280  -32.2050 H   0  0  0  0  0  0  0  0  0  0  0  0
  -39.2520   11.5360  -32.6810 H   0  0  0  0  0  0  0  0  0  0  0  0
  1 15  1  0  0  0  0
  1 31  1  0  0  0  0
  1 65  1  0  0  0  0
  2 15  1  0  0  0  0
  2 17  1  0  0  0  0
  2 18  2  0  0  0  0
  3 16  1  0  0  0  0
  3 66  1  0  0  0  0
  3 67  1  0  0  0  0
  3 68  1  0  0  0  0
  4 16  1  0  0  0  0
  4 69  1  0  0  0  0
  4 70  1  0  0  0  0
  4 71  1  0  0  0  0
  5 16  1  0  0  0  0
  5 72  1  0  0  0  0
  5 73  1  0  0  0  0
  5 74  1  0  0  0  0
  6  8  1  0  0  0  0
  6 17  1  0  0  0  0
  6 19  1  0  0  0  0
  6 75  1  0  0  0  0
  7 17  1  0  0  0  0
  7 20  1  0  0  0  0
  7 76  1  0  0  0  0
  7 77  1  0  0  0  0
  8 22  2  0  0  0  0
  8 23  1  0  0  0  0
  9 10  2  0  0  0  0
  9 25  1  0  0  0  0
  9 37  1  0  0  0  0
 10 11  1  0  0  0  0
 10 78  1  0  0  0  0
 11 26  2  0  0  0  0
 11 27  1  0  0  0  0
 12 25  2  0  0  0  0
 12 26  1  0  0  0  0
 12 79  1  0  0  0  0
 13 27  2  0  0  0  0
 13 28  1  0  0  0  0
 13 30  1  0  0  0  0
 14 28  2  0  0  0  0
 14 29  1  0  0  0  0
 14 80  1  0  0  0  0
 15 16  1  0  0  0  0
 15 81  1  0  0  0  0
 19 20  1  0  0  0  0
 19 82  1  0  0  0  0
 19 83  1  0  0  0  0
 20 21  1  0  0  0  0
 20 84  1  0  0  0  0
 21 85  1  0  0  0  0
 23 24  1  0  0  0  0
 23 86  1  0  0  0  0
 24 25  1  0  0  0  0
 24 87  1  0  0  0  0
 24 88  1  0  0  0  0
 26 89  1  0  0  0  0
 27 29  1  0  0  0  0
 30 90  1  0  0  0  0
 30 91  1  0  0  0  0
 30 92  1  0  0  0  0
 31 32  1  0  0  0  0
 31 33  2  0  0  0  0
 32 34  1  0  0  0  0
 32 35  1  0  0  0  0
 32 36  1  0  0  0  0
 35 36  1  0  0  0  0
 35 93  1  0  0  0  0
 35 94  1  0  0  0  0
 36 95  1  0  0  0  0
 36 96  1  0  0  0  0
 37 38  1  0  0  0  0
 38 39  1  0  0  0  0
 38 97  1  0  0  0  0
 38 98  1  0  0  0  0
 39 40  1  0  0  0  0
 39 99  1  0  0  0  0
 39100  1  0  0  0  0
 40 41  1  0  0  0  0
 40101  1  0  0  0  0
 40102  1  0  0  0  0
 41 42  1  0  0  0  0
 41103  1  0  0  0  0
 41104  1  0  0  0  0
 42 43  1  0  0  0  0
 43 44  1  0  0  0  0
 43105  1  0  0  0  0
 43106  1  0  0  0  0
 44 45  1  0  0  0  0
 44107  1  0  0  0  0
 44108  1  0  0  0  0
 45 46  1  0  0  0  0
 45 50  1  0  0  0  0
 45109  1  0  0  0  0
 46 47  1  0  0  0  0
 46110  1  0  0  0  0
 46111  1  0  0  0  0
 47 48  1  0  0  0  0
 47112  1  0  0  0  0
 47113  1  0  0  0  0
 48 49  1  0  0  0  0
 48 51  1  0  0  0  0
 49 50  1  0  0  0  0
 49114  1  0  0  0  0
 49115  1  0  0  0  0
 50116  1  0  0  0  0
 50117  1  0  0  0  0
 51 52  1  0  0  0  0
 51 56  2  0  0  0  0
 52 53  2  0  0  0  0
 52118  1  0  0  0  0
 53 54  1  0  0  0  0
 53 58  1  0  0  0  0
 54 55  2  0  0  0  0
 55 56  1  0  0  0  0
 56 57  1  0  0  0  0
 57119  1  0  0  0  0
 57120  1  0  0  0  0
 58 59  1  0  0  0  0
 58 63  2  0  0  0  0
 59 60  2  0  0  0  0
 59 64  1  0  0  0  0
 60 61  1  0  0  0  0
 60121  1  0  0  0  0
 61 62  2  0  0  0  0
 61122  1  0  0  0  0
 62 63  1  0  0  0  0
 62123  1  0  0  0  0
 63124  1  0  0  0  0
 64125  1  0  0  0  0
M  CHG  1  45   1
M  END
$$$$
p5
  MOE2018           3D

126132  0  0  1  0  0  0  0  0999 V2000
  -29.6520   15.4790  -32.4770 N   0  0  0  0  0  0  0  0  0  0  0  0
  -29.8630   14.5990  -30.1420 C   0  0  0  0  0  0  0  0  0  0  0  0
  -27.2550   16.0940  -29.5390 C   0  0  0  0  0  0  0  0  0  0  0  0
  -28.9700   17.6740  -30.4200 C   0  0  0  0  0  0  0  0  0  0  0  0
  -27.1170   16.8870  -31.8790 C   0  0  0  0  0  0  0  0  0  0  0  0
  -30.7920   12.6010  -29.0130 C   0  0  3  0  0  0  0  0  0  0  0  0
  -28.7140   12.3610  -30.1680 C   0  0  0  0  0  0  0  0  0  0  0  0
  -31.2710   13.0940  -27.6180 C   0  0  0  0  0  0  0  0  0  0  0  0
  -31.4760   12.8140  -23.4660 C   0  0  0  0  0  0  0  0  0  0  0  0
  -30.7910   12.2010  -22.4170 C   0  0  0  0  0  0  0  0  0  0  0  0
  -30.5290   10.8290  -22.4520 C   0  0  0  0  0  0  0  0  0  0  0  0
  -31.6630   10.7020  -24.5950 C   0  0  0  0  0  0  0  0  0  0  0  0
  -30.0530   10.2350  -20.0130 C   0  0  0  0  0  0  0  0  0  0  0  0
  -28.2900    8.9400  -19.9710 C   0  0  0  0  0  0  0  0  0  0  0  0
  -28.9140   15.1960  -31.2350 C   0  0  3  0  0  0  0  0  0  0  0  0
  -28.1040   16.4490  -30.7750 C   0  0  0  0  0  0  0  0  0  0  0  0
  -29.7010   13.3350  -29.6900 N   0  0  0  0  0  0  0  0  0  0  0  0
  -30.8390   15.2620  -29.7750 O   0  0  0  0  0  0  0  0  0  0  0  0
  -30.3300   11.1400  -28.9650 C   0  0  0  0  0  0  0  0  0  0  0  0
  -29.4400   11.0190  -30.1900 C   0  0  3  0  0  0  0  0  0  0  0  0
  -30.2540   10.8880  -31.3420 O   0  0  0  0  0  0  0  0  0  0  0  0
  -30.8540   14.1290  -27.1120 O   0  0  0  0  0  0  0  0  0  0  0  0
  -32.2430   12.3980  -27.0170 N   0  0  0  0  0  0  0  0  0  0  0  0
  -32.7310   12.7220  -25.6740 C   0  0  0  0  0  0  0  0  0  0  0  0
  -31.9300   12.0710  -24.5620 C   0  0  0  0  0  0  0  0  0  0  0  0
  -30.9650   10.0910  -23.5580 C   0  0  0  0  0  0  0  0  0  0  0  0
  -29.8130   10.1800  -21.3620 C   0  0  0  0  0  0  0  0  0  0  0  0
  -29.1830    9.5400  -19.2370 N   0  0  0  0  0  0  0  0  0  0  0  0
  -28.4490    9.1850  -21.6650 S   0  0  0  0  0  0  0  0  0  0  0  0
  -31.1850   10.9920  -19.3610 C   0  0  0  0  0  0  0  0  0  0  0  0
  -30.3290   14.5310  -33.1830 C   0  0  0  0  0  0  0  0  0  0  0  0
  -31.1090   14.9800  -34.4270 C   0  0  0  0  0  0  0  0  0  0  0  0
  -30.2840   13.3720  -32.7910 O   0  0  0  0  0  0  0  0  0  0  0  0
  -31.0760   16.3300  -34.6540 F   0  0  0  0  0  0  0  0  0  0  0  0
  -31.1540   14.1370  -35.6730 C   0  0  0  0  0  0  0  0  0  0  0  0
  -32.3910   14.3080  -34.8390 C   0  0  0  0  0  0  0  0  0  0  0  0
  -31.7300   14.1750  -23.4460 O   0  0  0  0  0  0  0  0  0  0  0  0
  -31.3410   15.1400  -22.4230 C   0  0  0  0  0  0  0  0  0  0  0  0
  -29.3960   16.2070  -23.5240 O   0  0  0  0  0  0  0  0  0  0  0  0
  -29.0490   15.3880  -24.6410 C   0  0  0  0  0  0  0  0  0  0  0  0
  -28.4240   16.2380  -25.7590 C   0  0  0  0  0  0  0  0  0  0  0  0
  -29.3660   16.8430  -26.6490 O   0  0  0  0  0  0  0  0  0  0  0  0
  -29.8380   15.4680  -22.3890 C   0  0  0  0  0  0  0  0  0  0  0  0
  -30.2640   17.7410  -26.0150 C   0  0  0  0  0  0  0  0  0  0  0  0
  -31.1940   18.3840  -27.0500 C   0  0  0  0  0  0  0  0  0  0  0  0
  -31.8820   17.4220  -28.0040 N   0  3  0  0  0  0  0  0  0  0  0  0
  -32.8480   16.4610  -27.3290 C   0  0  0  0  0  0  0  0  0  0  0  0
  -33.6310   15.5370  -28.2930 C   0  0  0  0  0  0  0  0  0  0  0  0
  -34.2610   16.2370  -29.4460 N   0  0  0  0  0  0  0  0  0  0  0  0
  -33.3340   17.1760  -30.1510 C   0  0  0  0  0  0  0  0  0  0  0  0
  -32.5370   18.1030  -29.2030 C   0  0  0  0  0  0  0  0  0  0  0  0
  -34.9590   15.3320  -30.2970 C   0  0  0  0  0  0  0  0  0  0  0  0
  -36.3370   15.2990  -30.1700 C   0  0  0  0  0  0  0  0  0  0  0  0
  -37.0730   14.4130  -30.9550 C   0  0  0  0  0  0  0  0  0  0  0  0
  -36.4310   13.5970  -31.8270 N   0  0  0  0  0  0  0  0  0  0  0  0
  -35.1050   13.6090  -31.9640 N   0  0  0  0  0  0  0  0  0  0  0  0
  -34.3670   14.4460  -31.2320 C   0  0  0  0  0  0  0  0  0  0  0  0
  -33.0090   14.3490  -31.4540 N   0  0  0  0  0  0  0  0  0  0  0  0
  -38.5300   14.3270  -30.8420 C   0  0  0  0  0  0  0  0  0  0  0  0
  -39.2090   13.0930  -30.8540 C   0  0  0  0  0  0  0  0  0  0  0  0
  -40.5860   13.0130  -30.6870 C   0  0  0  0  0  0  0  0  0  0  0  0
  -41.3270   14.1770  -30.5240 C   0  0  0  0  0  0  0  0  0  0  0  0
  -40.6850   15.4140  -30.5320 C   0  0  0  0  0  0  0  0  0  0  0  0
  -39.3040   15.4890  -30.6910 C   0  0  0  0  0  0  0  0  0  0  0  0
  -38.5320   11.9230  -31.0290 O   0  0  0  0  0  0  0  0  0  0  0  0
  -29.6570   16.4270  -32.8240 H   0  0  0  0  0  0  0  0  0  0  0  0
  -26.6910   16.9710  -29.2210 H   0  0  0  0  0  0  0  0  0  0  0  0
  -26.5640   15.2900  -29.7920 H   0  0  0  0  0  0  0  0  0  0  0  0
  -27.9090   15.7700  -28.7300 H   0  0  0  0  0  0  0  0  0  0  0  0
  -28.3260   18.4970  -30.1110 H   0  0  0  0  0  0  0  0  0  0  0  0
  -29.6470   17.4170  -29.6050 H   0  0  0  0  0  0  0  0  0  0  0  0
  -29.5500   17.9740  -31.2930 H   0  0  0  0  0  0  0  0  0  0  0  0
  -26.5600   17.7620  -31.5420 H   0  0  0  0  0  0  0  0  0  0  0  0
  -27.6710   17.1350  -32.7840 H   0  0  0  0  0  0  0  0  0  0  0  0
  -26.4230   16.0730  -32.0900 H   0  0  0  0  0  0  0  0  0  0  0  0
  -31.6970   12.7740  -29.5960 H   0  0  0  0  0  0  0  0  0  0  0  0
  -27.8600   12.3210  -29.4910 H   0  0  0  0  0  0  0  0  0  0  0  0
  -28.3720   12.6250  -31.1690 H   0  0  0  0  0  0  0  0  0  0  0  0
  -30.4620   12.7900  -21.5740 H   0  0  0  0  0  0  0  0  0  0  0  0
  -32.0010   10.1110  -25.4330 H   0  0  0  0  0  0  0  0  0  0  0  0
  -27.5050    8.3320  -19.5460 H   0  0  0  0  0  0  0  0  0  0  0  0
  -28.1710   14.4210  -31.4230 H   0  0  0  0  0  0  0  0  0  0  0  0
  -31.1790   10.4590  -29.0290 H   0  0  0  0  0  0  0  0  0  0  0  0
  -29.7690   10.9370  -28.0530 H   0  0  0  0  0  0  0  0  0  0  0  0
  -28.7640   10.1640  -30.1980 H   0  0  0  0  0  0  0  0  0  0  0  0
  -30.8590   11.6330  -31.3560 H   0  0  0  0  0  0  0  0  0  0  0  0
  -32.6570   11.6190  -27.5080 H   0  0  0  0  0  0  0  0  0  0  0  0
  -33.7660   12.3890  -25.5940 H   0  0  0  0  0  0  0  0  0  0  0  0
  -32.6870   13.8030  -25.5430 H   0  0  0  0  0  0  0  0  0  0  0  0
  -30.7570    9.0320  -23.6070 H   0  0  0  0  0  0  0  0  0  0  0  0
  -31.7800   11.4880  -20.1280 H   0  0  0  0  0  0  0  0  0  0  0  0
  -30.7780   11.7380  -18.6780 H   0  0  0  0  0  0  0  0  0  0  0  0
  -31.8150   10.2970  -18.8060 H   0  0  0  0  0  0  0  0  0  0  0  0
  -30.6430   13.1750  -35.6980 H   0  0  0  0  0  0  0  0  0  0  0  0
  -31.0880   14.6090  -36.6530 H   0  0  0  0  0  0  0  0  0  0  0  0
  -33.2230   14.9040  -35.2140 H   0  0  0  0  0  0  0  0  0  0  0  0
  -32.7770   13.4700  -34.2590 H   0  0  0  0  0  0  0  0  0  0  0  0
  -31.6230   14.7360  -21.4500 H   0  0  0  0  0  0  0  0  0  0  0  0
  -31.8870   16.0660  -22.6040 H   0  0  0  0  0  0  0  0  0  0  0  0
  -29.9470   14.9000  -25.0210 H   0  0  0  0  0  0  0  0  0  0  0  0
  -28.3320   14.6320  -24.3220 H   0  0  0  0  0  0  0  0  0  0  0  0
  -27.7670   15.5960  -26.3460 H   0  0  0  0  0  0  0  0  0  0  0  0
  -27.8380   17.0310  -25.2950 H   0  0  0  0  0  0  0  0  0  0  0  0
  -29.2810   14.5320  -22.3470 H   0  0  0  0  0  0  0  0  0  0  0  0
  -29.6320   16.0540  -21.4930 H   0  0  0  0  0  0  0  0  0  0  0  0
  -29.6950   18.5210  -25.5090 H   0  0  0  0  0  0  0  0  0  0  0  0
  -30.8620   17.1960  -25.2840 H   0  0  0  0  0  0  0  0  0  0  0  0
  -30.6030   19.0800  -27.6450 H   0  0  0  0  0  0  0  0  0  0  0  0
  -31.9670   18.9320  -26.5110 H   0  0  0  0  0  0  0  0  0  0  0  0
  -31.1190   16.8640  -28.3610 H   0  0  0  0  0  0  0  0  0  0  0  0
  -33.5700   17.0490  -26.7630 H   0  0  0  0  0  0  0  0  0  0  0  0
  -32.2770   15.8320  -26.6460 H   0  0  0  0  0  0  0  0  0  0  0  0
  -34.4180   15.0410  -27.7250 H   0  0  0  0  0  0  0  0  0  0  0  0
  -32.9400   14.7900  -28.6850 H   0  0  0  0  0  0  0  0  0  0  0  0
  -33.9230   17.7990  -30.8240 H   0  0  0  0  0  0  0  0  0  0  0  0
  -32.6240   16.5860  -30.7310 H   0  0  0  0  0  0  0  0  0  0  0  0
  -31.7510   18.5820  -29.7860 H   0  0  0  0  0  0  0  0  0  0  0  0
  -33.2210   18.8620  -28.8240 H   0  0  0  0  0  0  0  0  0  0  0  0
  -36.8360   15.9530  -29.4700 H   0  0  0  0  0  0  0  0  0  0  0  0
  -32.6530   13.6840  -32.1250 H   0  0  0  0  0  0  0  0  0  0  0  0
  -32.3700   14.9430  -30.9450 H   0  0  0  0  0  0  0  0  0  0  0  0
  -41.0780   12.0510  -30.6840 H   0  0  0  0  0  0  0  0  0  0  0  0
  -42.3970   14.1230  -30.3910 H   0  0  0  0  0  0  0  0  0  0  0  0
  -41.2620   16.3190  -30.4140 H   0  0  0  0  0  0  0  0  0  0  0  0
  -38.8210   16.4550  -30.6980 H   0  0  0  0  0  0  0  0  0  0  0  0
  -39.0780   11.1330  -31.0210 H   0  0  0  0  0  0  0  0  0  0  0  0
  1 15  1  0  0  0  0
  1 31  1  0  0  0  0
  1 66  1  0  0  0  0
  2 15  1  0  0  0  0
  2 17  1  0  0  0  0
  2 18  2  0  0  0  0
  3 16  1  0  0  0  0
  3 67  1  0  0  0  0
  3 68  1  0  0  0  0
  3 69  1  0  0  0  0
  4 16  1  0  0  0  0
  4 70  1  0  0  0  0
  4 71  1  0  0  0  0
  4 72  1  0  0  0  0
  5 16  1  0  0  0  0
  5 73  1  0  0  0  0
  5 74  1  0  0  0  0
  5 75  1  0  0  0  0
  6  8  1  0  0  0  0
  6 17  1  0  0  0  0
  6 19  1  0  0  0  0
  6 76  1  0  0  0  0
  7 17  1  0  0  0  0
  7 20  1  0  0  0  0
  7 77  1  0  0  0  0
  7 78  1  0  0  0  0
  8 22  2  0  0  0  0
  8 23  1  0  0  0  0
  9 10  2  0  0  0  0
  9 25  1  0  0  0  0
  9 37  1  0  0  0  0
 10 11  1  0  0  0  0
 10 79  1  0  0  0  0
 11 26  2  0  0  0  0
 11 27  1  0  0  0  0
 12 25  2  0  0  0  0
 12 26  1  0  0  0  0
 12 80  1  0  0  0  0
 13 27  2  0  0  0  0
 13 28  1  0  0  0  0
 13 30  1  0  0  0  0
 14 28  2  0  0  0  0
 14 29  1  0  0  0  0
 14 81  1  0  0  0  0
 15 16  1  0  0  0  0
 15 82  1  0  0  0  0
 19 20  1  0  0  0  0
 19 83  1  0  0  0  0
 19 84  1  0  0  0  0
 20 21  1  0  0  0  0
 20 85  1  0  0  0  0
 21 86  1  0  0  0  0
 23 24  1  0  0  0  0
 23 87  1  0  0  0  0
 24 25  1  0  0  0  0
 24 88  1  0  0  0  0
 24 89  1  0  0  0  0
 26 90  1  0  0  0  0
 27 29  1  0  0  0  0
 30 91  1  0  0  0  0
 30 92  1  0  0  0  0
 30 93  1  0  0  0  0
 31 32  1  0  0  0  0
 31 33  2  0  0  0  0
 32 34  1  0  0  0  0
 32 35  1  0  0  0  0
 32 36  1  0  0  0  0
 35 36  1  0  0  0  0
 35 94  1  0  0  0  0
 35 95  1  0  0  0  0
 36 96  1  0  0  0  0
 36 97  1  0  0  0  0
 37 38  1  0  0  0  0
 38 43  1  0  0  0  0
 38 98  1  0  0  0  0
 38 99  1  0  0  0  0
 39 40  1  0  0  0  0
 39 43  1  0  0  0  0
 40 41  1  0  0  0  0
 40100  1  0  0  0  0
 40101  1  0  0  0  0
 41 42  1  0  0  0  0
 41102  1  0  0  0  0
 41103  1  0  0  0  0
 42 44  1  0  0  0  0
 43104  1  0  0  0  0
 43105  1  0  0  0  0
 44 45  1  0  0  0  0
 44106  1  0  0  0  0
 44107  1  0  0  0  0
 45 46  1  0  0  0  0
 45108  1  0  0  0  0
 45109  1  0  0  0  0
 46 47  1  0  0  0  0
 46 51  1  0  0  0  0
 46110  1  0  0  0  0
 47 48  1  0  0  0  0
 47111  1  0  0  0  0
 47112  1  0  0  0  0
 48 49  1  0  0  0  0
 48113  1  0  0  0  0
 48114  1  0  0  0  0
 49 50  1  0  0  0  0
 49 52  1  0  0  0  0
 50 51  1  0  0  0  0
 50115  1  0  0  0  0
 50116  1  0  0  0  0
 51117  1  0  0  0  0
 51118  1  0  0  0  0
 52 53  1  0  0  0  0
 52 57  2  0  0  0  0
 53 54  2  0  0  0  0
 53119  1  0  0  0  0
 54 55  1  0  0  0  0
 54 59  1  0  0  0  0
 55 56  2  0  0  0  0
 56 57  1  0  0  0  0
 57 58  1  0  0  0  0
 58120  1  0  0  0  0
 58121  1  0  0  0  0
 59 60  1  0  0  0  0
 59 64  2  0  0  0  0
 60 61  2  0  0  0  0
 60 65  1  0  0  0  0
 61 62  1  0  0  0  0
 61122  1  0  0  0  0
 62 63  2  0  0  0  0
 62123  1  0  0  0  0
 63 64  1  0  0  0  0
 63124  1  0  0  0  0
 64125  1  0  0  0  0
 65126  1  0  0  0  0
M  CHG  1  46   1
M  END
$$$$
p6
  MOE2018           3D

134140  0  0  1  0  0  0  0  0999 V2000
  -29.8370   15.2880  -31.9900 N   0  0  0  0  0  0  0  0  0  0  0  0
  -30.2080   14.6200  -29.6040 C   0  0  0  0  0  0  0  0  0  0  0  0
  -27.5560   15.9800  -28.9890 C   0  0  0  0  0  0  0  0  0  0  0  0
  -29.0390   17.6000  -30.1960 C   0  0  0  0  0  0  0  0  0  0  0  0
  -27.1700   16.4710  -31.3770 C   0  0  0  0  0  0  0  0  0  0  0  0
  -31.3420   12.8200  -28.3250 C   0  0  3  0  0  0  0  0  0  0  0  0
  -29.3100   12.2850  -29.4480 C   0  0  0  0  0  0  0  0  0  0  0  0
  -31.7520   13.3650  -26.9190 C   0  0  0  0  0  0  0  0  0  0  0  0
  -31.2570   12.4080  -22.7350 C   0  0  0  0  0  0  0  0  0  0  0  0
  -30.4250   11.6220  -21.9480 C   0  0  0  0  0  0  0  0  0  0  0  0
  -30.1190   10.3150  -22.3330 C   0  0  0  0  0  0  0  0  0  0  0  0
  -31.5300   10.6060  -24.2900 C   0  0  0  0  0  0  0  0  0  0  0  0
  -29.2300    9.2570  -20.1790 C   0  0  0  0  0  0  0  0  0  0  0  0
  -27.4840    8.0470  -20.7020 C   0  0  0  0  0  0  0  0  0  0  0  0
  -29.1710   15.0470  -30.7020 C   0  0  3  0  0  0  0  0  0  0  0  0
  -28.2760   16.2660  -30.3190 C   0  0  0  0  0  0  0  0  0  0  0  0
  -30.1690   13.3980  -29.0260 N   0  0  0  0  0  0  0  0  0  0  0  0
  -31.1440   15.3800  -29.3400 O   0  0  0  0  0  0  0  0  0  0  0  0
  -31.0830   11.3030  -28.2950 C   0  0  0  0  0  0  0  0  0  0  0  0
  -30.2360   11.0740  -29.5330 C   0  0  3  0  0  0  0  0  0  0  0  0
  -31.0830   11.1230  -30.6700 O   0  0  0  0  0  0  0  0  0  0  0  0
  -31.4540   14.4910  -26.5240 O   0  0  0  0  0  0  0  0  0  0  0  0
  -32.5640   12.5890  -26.1890 N   0  0  0  0  0  0  0  0  0  0  0  0
  -32.7760   12.7650  -24.7520 C   0  0  0  0  0  0  0  0  0  0  0  0
  -31.8260   11.9190  -23.9170 C   0  0  0  0  0  0  0  0  0  0  0  0
  -30.6820    9.8200  -23.5150 C   0  0  0  0  0  0  0  0  0  0  0  0
  -29.2260    9.4860  -21.5320 C   0  0  0  0  0  0  0  0  0  0  0  0
  -28.2390    8.4500  -19.7210 N   0  0  0  0  0  0  0  0  0  0  0  0
  -27.9320    8.6250  -22.2570 S   0  0  0  0  0  0  0  0  0  0  0  0
  -30.2320    9.8260  -19.2030 C   0  0  0  0  0  0  0  0  0  0  0  0
  -30.3860   14.3000  -32.7460 C   0  0  0  0  0  0  0  0  0  0  0  0
  -31.1430   14.7010  -34.0200 C   0  0  0  0  0  0  0  0  0  0  0  0
  -30.2500   13.1440  -32.3710 O   0  0  0  0  0  0  0  0  0  0  0  0
  -31.2350   16.0560  -34.2150 F   0  0  0  0  0  0  0  0  0  0  0  0
  -31.0360   13.8920  -35.2830 C   0  0  0  0  0  0  0  0  0  0  0  0
  -32.3270   13.9160  -34.5160 C   0  0  0  0  0  0  0  0  0  0  0  0
  -31.5140   13.6790  -22.2960 O   0  0  0  0  0  0  0  0  0  0  0  0
  -30.8610   14.8130  -22.9110 C   0  0  0  0  0  0  0  0  0  0  0  0
  -29.6130   15.2810  -22.1480 C   0  0  0  0  0  0  0  0  0  0  0  0
  -28.3150   14.5190  -22.4730 C   0  0  0  0  0  0  0  0  0  0  0  0
  -28.8790   16.4060  -25.3130 C   0  0  0  0  0  0  0  0  0  0  0  0
  -27.6270   15.8800  -24.5930 C   0  0  0  0  0  0  0  0  0  0  0  0
  -27.8580   14.5000  -23.9450 C   0  0  0  0  0  0  0  0  0  0  0  0
  -28.6340   17.7370  -26.0280 C   0  0  0  0  0  0  0  0  0  0  0  0
  -29.7260   18.0360  -26.8930 O   0  0  0  0  0  0  0  0  0  0  0  0
  -30.9080   18.4630  -26.2310 C   0  0  0  0  0  0  0  0  0  0  0  0
  -31.9940   18.8170  -27.2540 C   0  0  0  0  0  0  0  0  0  0  0  0
  -32.4500   17.6890  -28.1610 N   0  3  0  0  0  0  0  0  0  0  0  0
  -33.4670   16.7480  -27.5150 C   0  0  0  0  0  0  0  0  0  0  0  0
  -34.1130   15.7010  -28.4560 C   0  0  0  0  0  0  0  0  0  0  0  0
  -34.5740   16.2500  -29.7630 N   0  0  0  0  0  0  0  0  0  0  0  0
  -33.5520   17.0950  -30.4430 C   0  0  0  0  0  0  0  0  0  0  0  0
  -32.9370   18.1750  -29.5250 C   0  0  0  0  0  0  0  0  0  0  0  0
  -35.1540   15.2630  -30.6090 C   0  0  0  0  0  0  0  0  0  0  0  0
  -36.5240   15.3210  -30.7910 C   0  0  0  0  0  0  0  0  0  0  0  0
  -37.1450   14.3680  -31.5990 C   0  0  0  0  0  0  0  0  0  0  0  0
  -36.4000   13.3960  -32.1810 N   0  0  0  0  0  0  0  0  0  0  0  0
  -35.0780   13.3210  -32.0180 N   0  0  0  0  0  0  0  0  0  0  0  0
  -34.4490   14.2240  -31.2650 C   0  0  0  0  0  0  0  0  0  0  0  0
  -33.0810   14.0550  -31.1800 N   0  0  0  0  0  0  0  0  0  0  0  0
  -38.5910   14.3840  -31.8180 C   0  0  0  0  0  0  0  0  0  0  0  0
  -39.3590   13.2030  -31.8230 C   0  0  0  0  0  0  0  0  0  0  0  0
  -40.7400   13.2280  -31.9780 C   0  0  0  0  0  0  0  0  0  0  0  0
  -41.3890   14.4440  -32.1540 C   0  0  0  0  0  0  0  0  0  0  0  0
  -40.6530   15.6260  -32.1760 C   0  0  0  0  0  0  0  0  0  0  0  0
  -39.2710   15.5970  -32.0110 C   0  0  0  0  0  0  0  0  0  0  0  0
  -38.7690   11.9830  -31.6740 O   0  0  0  0  0  0  0  0  0  0  0  0
  -29.8900   16.2370  -32.3310 H   0  0  0  0  0  0  0  0  0  0  0  0
  -26.9310   16.8330  -28.7230 H   0  0  0  0  0  0  0  0  0  0  0  0
  -26.9320   15.0930  -29.0970 H   0  0  0  0  0  0  0  0  0  0  0  0
  -28.2940   15.8120  -28.2050 H   0  0  0  0  0  0  0  0  0  0  0  0
  -28.3420   18.3940  -29.9270 H   0  0  0  0  0  0  0  0  0  0  0  0
  -29.8040   17.5110  -29.4240 H   0  0  0  0  0  0  0  0  0  0  0  0
  -29.5110   17.8380  -31.1490 H   0  0  0  0  0  0  0  0  0  0  0  0
  -26.5530   17.3250  -31.0970 H   0  0  0  0  0  0  0  0  0  0  0  0
  -27.6270   16.6560  -32.3490 H   0  0  0  0  0  0  0  0  0  0  0  0
  -26.5490   15.5770  -31.4320 H   0  0  0  0  0  0  0  0  0  0  0  0
  -32.2210   13.1320  -28.8890 H   0  0  0  0  0  0  0  0  0  0  0  0
  -28.5210   12.1120  -28.7160 H   0  0  0  0  0  0  0  0  0  0  0  0
  -28.8640   12.4940  -30.4200 H   0  0  0  0  0  0  0  0  0  0  0  0
  -30.0130   12.0240  -21.0340 H   0  0  0  0  0  0  0  0  0  0  0  0
  -31.9640   10.1960  -25.1900 H   0  0  0  0  0  0  0  0  0  0  0  0
  -26.6360    7.3960  -20.5490 H   0  0  0  0  0  0  0  0  0  0  0  0
  -28.4910   14.1990  -30.7890 H   0  0  0  0  0  0  0  0  0  0  0  0
  -32.0180   10.7450  -28.3520 H   0  0  0  0  0  0  0  0  0  0  0  0
  -30.5430   11.0160  -27.3930 H   0  0  0  0  0  0  0  0  0  0  0  0
  -29.7040   10.1250  -29.6010 H   0  0  0  0  0  0  0  0  0  0  0  0
  -31.5660   11.9520  -30.6360 H   0  0  0  0  0  0  0  0  0  0  0  0
  -33.0570   11.8410  -26.6560 H   0  0  0  0  0  0  0  0  0  0  0  0
  -33.8010   12.4810  -24.5120 H   0  0  0  0  0  0  0  0  0  0  0  0
  -32.6220   13.8150  -24.5020 H   0  0  0  0  0  0  0  0  0  0  0  0
  -30.4550    8.8120  -23.8310 H   0  0  0  0  0  0  0  0  0  0  0  0
  -30.9500   10.4460  -19.7400 H   0  0  0  0  0  0  0  0  0  0  0  0
  -29.7120   10.4320  -18.4610 H   0  0  0  0  0  0  0  0  0  0  0  0
  -30.7570    9.0110  -18.7040 H   0  0  0  0  0  0  0  0  0  0  0  0
  -30.4290   12.9870  -35.3000 H   0  0  0  0  0  0  0  0  0  0  0  0
  -30.9660   14.3950  -36.2480 H   0  0  0  0  0  0  0  0  0  0  0  0
  -33.1940   14.4360  -34.9240 H   0  0  0  0  0  0  0  0  0  0  0  0
  -32.6570   13.0280  -33.9770 H   0  0  0  0  0  0  0  0  0  0  0  0
  -31.5700   15.6390  -22.9540 H   0  0  0  0  0  0  0  0  0  0  0  0
  -30.5650   14.5350  -23.9220 H   0  0  0  0  0  0  0  0  0  0  0  0
  -29.8100   15.1700  -21.0820 H   0  0  0  0  0  0  0  0  0  0  0  0
  -29.4520   16.3340  -22.3800 H   0  0  0  0  0  0  0  0  0  0  0  0
  -28.4550   13.4840  -22.1600 H   0  0  0  0  0  0  0  0  0  0  0  0
  -27.5140   14.9710  -21.8870 H   0  0  0  0  0  0  0  0  0  0  0  0
  -29.6710   16.5460  -24.5780 H   0  0  0  0  0  0  0  0  0  0  0  0
  -29.1940   15.6670  -26.0500 H   0  0  0  0  0  0  0  0  0  0  0  0
  -27.3470   16.5900  -23.8150 H   0  0  0  0  0  0  0  0  0  0  0  0
  -26.8160   15.7960  -25.3170 H   0  0  0  0  0  0  0  0  0  0  0  0
  -28.6210   13.9810  -24.5260 H   0  0  0  0  0  0  0  0  0  0  0  0
  -26.9210   13.9450  -23.9970 H   0  0  0  0  0  0  0  0  0  0  0  0
  -27.7180   17.6680  -26.6150 H   0  0  0  0  0  0  0  0  0  0  0  0
  -28.5330   18.5310  -25.2880 H   0  0  0  0  0  0  0  0  0  0  0  0
  -30.6840   19.3420  -25.6260 H   0  0  0  0  0  0  0  0  0  0  0  0
  -31.2690   17.6610  -25.5870 H   0  0  0  0  0  0  0  0  0  0  0  0
  -31.6080   19.6170  -27.8860 H   0  0  0  0  0  0  0  0  0  0  0  0
  -32.8650   19.1750  -26.7050 H   0  0  0  0  0  0  0  0  0  0  0  0
  -31.6140   17.1440  -28.3170 H   0  0  0  0  0  0  0  0  0  0  0  0
  -34.2670   17.3580  -27.0950 H   0  0  0  0  0  0  0  0  0  0  0  0
  -32.9620   16.2100  -26.7130 H   0  0  0  0  0  0  0  0  0  0  0  0
  -34.9730   15.2680  -27.9450 H   0  0  0  0  0  0  0  0  0  0  0  0
  -33.3780   14.9210  -28.6540 H   0  0  0  0  0  0  0  0  0  0  0  0
  -34.0230   17.5910  -31.2920 H   0  0  0  0  0  0  0  0  0  0  0  0
  -32.7510   16.4480  -30.7990 H   0  0  0  0  0  0  0  0  0  0  0  0
  -32.0860   18.6130  -30.0470 H   0  0  0  0  0  0  0  0  0  0  0  0
  -33.6940   18.9410  -29.3560 H   0  0  0  0  0  0  0  0  0  0  0  0
  -37.1060   16.0950  -30.3130 H   0  0  0  0  0  0  0  0  0  0  0  0
  -32.6350   13.2910  -31.6680 H   0  0  0  0  0  0  0  0  0  0  0  0
  -32.5260   14.6950  -30.6300 H   0  0  0  0  0  0  0  0  0  0  0  0
  -41.3050   12.3080  -31.9620 H   0  0  0  0  0  0  0  0  0  0  0  0
  -42.4620   14.4720  -32.2730 H   0  0  0  0  0  0  0  0  0  0  0  0
  -41.1570   16.5700  -32.3220 H   0  0  0  0  0  0  0  0  0  0  0  0
  -38.7130   16.5220  -32.0320 H   0  0  0  0  0  0  0  0  0  0  0  0
  -39.3720   11.2360  -31.6900 H   0  0  0  0  0  0  0  0  0  0  0  0
  1 15  1  0  0  0  0
  1 31  1  0  0  0  0
  1 68  1  0  0  0  0
  2 15  1  0  0  0  0
  2 17  1  0  0  0  0
  2 18  2  0  0  0  0
  3 16  1  0  0  0  0
  3 69  1  0  0  0  0
  3 70  1  0  0  0  0
  3 71  1  0  0  0  0
  4 16  1  0  0  0  0
  4 72  1  0  0  0  0
  4 73  1  0  0  0  0
  4 74  1  0  0  0  0
  5 16  1  0  0  0  0
  5 75  1  0  0  0  0
  5 76  1  0  0  0  0
  5 77  1  0  0  0  0
  6  8  1  0  0  0  0
  6 17  1  0  0  0  0
  6 19  1  0  0  0  0
  6 78  1  0  0  0  0
  7 17  1  0  0  0  0
  7 20  1  0  0  0  0
  7 79  1  0  0  0  0
  7 80  1  0  0  0  0
  8 22  2  0  0  0  0
  8 23  1  0  0  0  0
  9 10  2  0  0  0  0
  9 25  1  0  0  0  0
  9 37  1  0  0  0  0
 10 11  1  0  0  0  0
 10 81  1  0  0  0  0
 11 26  2  0  0  0  0
 11 27  1  0  0  0  0
 12 25  2  0  0  0  0
 12 26  1  0  0  0  0
 12 82  1  0  0  0  0
 13 27  2  0  0  0  0
 13 28  1  0  0  0  0
 13 30  1  0  0  0  0
 14 28  2  0  0  0  0
 14 29  1  0  0  0  0
 14 83  1  0  0  0  0
 15 16  1  0  0  0  0
 15 84  1  0  0  0  0
 19 20  1  0  0  0  0
 19 85  1  0  0  0  0
 19 86  1  0  0  0  0
 20 21  1  0  0  0  0
 20 87  1  0  0  0  0
 21 88  1  0  0  0  0
 23 24  1  0  0  0  0
 23 89  1  0  0  0  0
 24 25  1  0  0  0  0
 24 90  1  0  0  0  0
 24 91  1  0  0  0  0
 26 92  1  0  0  0  0
 27 29  1  0  0  0  0
 30 93  1  0  0  0  0
 30 94  1  0  0  0  0
 30 95  1  0  0  0  0
 31 32  1  0  0  0  0
 31 33  2  0  0  0  0
 32 34  1  0  0  0  0
 32 35  1  0  0  0  0
 32 36  1  0  0  0  0
 35 36  1  0  0  0  0
 35 96  1  0  0  0  0
 35 97  1  0  0  0  0
 36 98  1  0  0  0  0
 36 99  1  0  0  0  0
 37 38  1  0  0  0  0
 38 39  1  0  0  0  0
 38100  1  0  0  0  0
 38101  1  0  0  0  0
 39 40  1  0  0  0  0
 39102  1  0  0  0  0
 39103  1  0  0  0  0
 40 43  1  0  0  0  0
 40104  1  0  0  0  0
 40105  1  0  0  0  0
 41 42  1  0  0  0  0
 41 44  1  0  0  0  0
 41106  1  0  0  0  0
 41107  1  0  0  0  0
 42 43  1  0  0  0  0
 42108  1  0  0  0  0
 42109  1  0  0  0  0
 43110  1  0  0  0  0
 43111  1  0  0  0  0
 44 45  1  0  0  0  0
 44112  1  0  0  0  0
 44113  1  0  0  0  0
 45 46  1  0  0  0  0
 46 47  1  0  0  0  0
 46114  1  0  0  0  0
 46115  1  0  0  0  0
 47 48  1  0  0  0  0
 47116  1  0  0  0  0
 47117  1  0  0  0  0
 48 49  1  0  0  0  0
 48 53  1  0  0  0  0
 48118  1  0  0  0  0
 49 50  1  0  0  0  0
 49119  1  0  0  0  0
 49120  1  0  0  0  0
 50 51  1  0  0  0  0
 50121  1  0  0  0  0
 50122  1  0  0  0  0
 51 52  1  0  0  0  0
 51 54  1  0  0  0  0
 52 53  1  0  0  0  0
 52123  1  0  0  0  0
 52124  1  0  0  0  0
 53125  1  0  0  0  0
 53126  1  0  0  0  0
 54 55  1  0  0  0  0
 54 59  2  0  0  0  0
 55 56  2  0  0  0  0
 55127  1  0  0  0  0
 56 57  1  0  0  0  0
 56 61  1  0  0  0  0
 57 58  2  0  0  0  0
 58 59  1  0  0  0  0
 59 60  1  0  0  0  0
 60128  1  0  0  0  0
 60129  1  0  0  0  0
 61 62  1  0  0  0  0
 61 66  2  0  0  0  0
 62 63  2  0  0  0  0
 62 67  1  0  0  0  0
 63 64  1  0  0  0  0
 63130  1  0  0  0  0
 64 65  2  0  0  0  0
 64131  1  0  0  0  0
 65 66  1  0  0  0  0
 65132  1  0  0  0  0
 66133  1  0  0  0  0
 67134  1  0  0  0  0
M  CHG  1  48   1
M  END
$$$$
p7
  MOE2018           3D

126133  0  0  1  0  0  0  0  0999 V2000
  -29.8160   14.5580  -31.8120 N   0  0  0  0  0  0  0  0  0  0  0  0
  -30.4710   13.5980  -29.6040 C   0  0  0  0  0  0  0  0  0  0  0  0
  -27.6040   13.8580  -28.7460 C   0  0  0  0  0  0  0  0  0  0  0  0
  -28.2390   16.0510  -29.8010 C   0  0  0  0  0  0  0  0  0  0  0  0
  -26.8790   14.3970  -31.0430 C   0  0  0  0  0  0  0  0  0  0  0  0
  -32.2460   12.1890  -28.6870 C   0  0  3  0  0  0  0  0  0  0  0  0
  -30.5900   11.1130  -30.0080 C   0  0  0  0  0  0  0  0  0  0  0  0
  -32.3820   12.5430  -27.1880 C   0  0  0  0  0  0  0  0  0  0  0  0
  -30.4420   11.7350  -22.7340 C   0  0  0  0  0  0  0  0  0  0  0  0
  -29.6310   10.9420  -21.9280 C   0  0  0  0  0  0  0  0  0  0  0  0
  -29.0010    9.8150  -22.4640 C   0  0  0  0  0  0  0  0  0  0  0  0
  -30.0230   10.3090  -24.6140 C   0  0  0  0  0  0  0  0  0  0  0  0
  -28.3990    8.4210  -20.4090 C   0  0  0  0  0  0  0  0  0  0  0  0
  -26.3600    7.6760  -20.6800 C   0  0  0  0  0  0  0  0  0  0  0  0
  -29.3180   13.8250  -30.6390 C   0  0  3  0  0  0  0  0  0  0  0  0
  -28.0560   14.5380  -30.0540 C   0  0  0  0  0  0  0  0  0  0  0  0
  -30.9120   12.3570  -29.2990 N   0  0  0  0  0  0  0  0  0  0  0  0
  -31.0320   14.5780  -29.0960 O   0  0  0  0  0  0  0  0  0  0  0  0
  -32.6690   10.7470  -28.9870 C   0  0  0  0  0  0  0  0  0  0  0  0
  -31.9410   10.4540  -30.2910 C   0  0  3  0  0  0  0  0  0  0  0  0
  -32.6270   11.0990  -31.3520 O   0  0  0  0  0  0  0  0  0  0  0  0
  -33.3700   13.1610  -26.7950 O   0  0  0  0  0  0  0  0  0  0  0  0
  -31.4010   12.2040  -26.3510 N   0  0  0  0  0  0  0  0  0  0  0  0
  -31.5350   12.3590  -24.9040 C   0  0  0  0  0  0  0  0  0  0  0  0
  -30.6420   11.4430  -24.0840 C   0  0  0  0  0  0  0  0  0  0  0  0
  -29.2080    9.5110  -23.8160 C   0  0  0  0  0  0  0  0  0  0  0  0
  -28.1460    8.9730  -21.6390 C   0  0  0  0  0  0  0  0  0  0  0  0
  -27.3820    7.6990  -19.8740 N   0  0  0  0  0  0  0  0  0  0  0  0
  -26.5680    8.5370  -22.1530 S   0  0  0  0  0  0  0  0  0  0  0  0
  -29.6930    8.5610  -19.6440 C   0  0  0  0  0  0  0  0  0  0  0  0
  -30.6710   14.0200  -32.7220 C   0  0  0  0  0  0  0  0  0  0  0  0
  -31.2780   14.9620  -33.7700 C   0  0  0  0  0  0  0  0  0  0  0  0
  -30.9040   12.8230  -32.6550 O   0  0  0  0  0  0  0  0  0  0  0  0
  -31.1660   16.2950  -33.4520 F   0  0  0  0  0  0  0  0  0  0  0  0
  -31.1880   14.6570  -35.2400 C   0  0  0  0  0  0  0  0  0  0  0  0
  -32.5170   14.6040  -34.5430 C   0  0  0  0  0  0  0  0  0  0  0  0
  -31.0860   12.8350  -22.2140 O   0  0  0  0  0  0  0  0  0  0  0  0
  -30.5810   13.7050  -21.1680 C   0  0  0  0  0  0  0  0  0  0  0  0
  -29.1770   14.2690  -21.4490 C   0  0  0  0  0  0  0  0  0  0  0  0
  -28.8900   14.4940  -22.8550 O   0  0  0  0  0  0  0  0  0  0  0  0
  -29.5620   15.2650  -23.7680 C   0  0  0  0  0  0  0  0  0  0  0  0
  -29.2330   15.0720  -25.1030 C   0  0  0  0  0  0  0  0  0  0  0  0
  -29.8800   15.8150  -26.0820 C   0  0  0  0  0  0  0  0  0  0  0  0
  -30.8500   16.7550  -25.7320 C   0  0  0  0  0  0  0  0  0  0  0  0
  -31.1760   16.9370  -24.3850 C   0  0  0  0  0  0  0  0  0  0  0  0
  -30.5310   16.1960  -23.3980 C   0  0  0  0  0  0  0  0  0  0  0  0
  -31.5040   17.5980  -26.8010 C   0  0  0  0  0  0  0  0  0  0  0  0
  -32.2190   16.8250  -27.8730 N   0  3  0  0  0  0  0  0  0  0  0  0
  -33.5550   16.2280  -27.4180 C   0  0  0  0  0  0  0  0  0  0  0  0
  -34.3850   15.5480  -28.5350 C   0  0  0  0  0  0  0  0  0  0  0  0
  -34.4710   16.3340  -29.7960 N   0  0  0  0  0  0  0  0  0  0  0  0
  -33.1640   16.8500  -30.2800 C   0  0  0  0  0  0  0  0  0  0  0  0
  -32.3790   17.5960  -29.1820 C   0  0  0  0  0  0  0  0  0  0  0  0
  -35.2650   15.6960  -30.7930 C   0  0  0  0  0  0  0  0  0  0  0  0
  -36.5400   16.1930  -30.9960 C   0  0  0  0  0  0  0  0  0  0  0  0
  -37.3580   15.5940  -31.9540 C   0  0  0  0  0  0  0  0  0  0  0  0
  -36.8900   14.5480  -32.6790 N   0  0  0  0  0  0  0  0  0  0  0  0
  -35.6620   14.0510  -32.4960 N   0  0  0  0  0  0  0  0  0  0  0  0
  -34.8600   14.5900  -31.5790 C   0  0  0  0  0  0  0  0  0  0  0  0
  -33.6290   13.9810  -31.4400 N   0  0  0  0  0  0  0  0  0  0  0  0
  -38.7090   16.0800  -32.2320 C   0  0  0  0  0  0  0  0  0  0  0  0
  -39.6380   16.3780  -31.2150 C   0  0  0  0  0  0  0  0  0  0  0  0
  -40.9140   16.8530  -31.5060 C   0  0  0  0  0  0  0  0  0  0  0  0
  -41.2930   17.0330  -32.8310 C   0  0  0  0  0  0  0  0  0  0  0  0
  -40.3990   16.7350  -33.8560 C   0  0  0  0  0  0  0  0  0  0  0  0
  -39.1240   16.2630  -33.5600 C   0  0  0  0  0  0  0  0  0  0  0  0
  -39.3200   16.1960  -29.9000 O   0  0  0  0  0  0  0  0  0  0  0  0
  -29.5070   15.5100  -31.9490 H   0  0  0  0  0  0  0  0  0  0  0  0
  -26.7240   14.3700  -28.3560 H   0  0  0  0  0  0  0  0  0  0  0  0
  -27.3590   12.8150  -28.9450 H   0  0  0  0  0  0  0  0  0  0  0  0
  -28.4090   13.9090  -28.0130 H   0  0  0  0  0  0  0  0  0  0  0  0
  -27.3160   16.4660  -29.3950 H   0  0  0  0  0  0  0  0  0  0  0  0
  -29.0500   16.2050  -29.0890 H   0  0  0  0  0  0  0  0  0  0  0  0
  -28.4800   16.5500  -30.7400 H   0  0  0  0  0  0  0  0  0  0  0  0
  -25.9990   14.8940  -30.6340 H   0  0  0  0  0  0  0  0  0  0  0  0
  -27.1470   14.8560  -31.9940 H   0  0  0  0  0  0  0  0  0  0  0  0
  -26.6600   13.3410  -31.1980 H   0  0  0  0  0  0  0  0  0  0  0  0
  -32.9120   12.9290  -29.1310 H   0  0  0  0  0  0  0  0  0  0  0  0
  -29.9720   10.4660  -29.3850 H   0  0  0  0  0  0  0  0  0  0  0  0
  -30.0670   11.3280  -30.9400 H   0  0  0  0  0  0  0  0  0  0  0  0
  -29.4880   11.1970  -20.8880 H   0  0  0  0  0  0  0  0  0  0  0  0
  -30.1780   10.0490  -25.6510 H   0  0  0  0  0  0  0  0  0  0  0  0
  -25.4460    7.1530  -20.4400 H   0  0  0  0  0  0  0  0  0  0  0  0
  -28.9880   12.8280  -30.9310 H   0  0  0  0  0  0  0  0  0  0  0  0
  -33.7490   10.6720  -29.1130 H   0  0  0  0  0  0  0  0  0  0  0  0
  -32.3480   10.0700  -28.1960 H   0  0  0  0  0  0  0  0  0  0  0  0
  -31.8640    9.4050  -30.5770 H   0  0  0  0  0  0  0  0  0  0  0  0
  -32.7070   12.0280  -31.1230 H   0  0  0  0  0  0  0  0  0  0  0  0
  -30.5420   11.8300  -26.7270 H   0  0  0  0  0  0  0  0  0  0  0  0
  -32.5710   12.1540  -24.6350 H   0  0  0  0  0  0  0  0  0  0  0  0
  -31.2900   13.3900  -24.6480 H   0  0  0  0  0  0  0  0  0  0  0  0
  -28.7280    8.6440  -24.2460 H   0  0  0  0  0  0  0  0  0  0  0  0
  -30.3910    9.1690  -20.2190 H   0  0  0  0  0  0  0  0  0  0  0  0
  -29.4980    9.0410  -18.6850 H   0  0  0  0  0  0  0  0  0  0  0  0
  -30.1240    7.5740  -19.4750 H   0  0  0  0  0  0  0  0  0  0  0  0
  -30.7120   13.7360  -35.5770 H   0  0  0  0  0  0  0  0  0  0  0  0
  -30.9770   15.4560  -35.9500 H   0  0  0  0  0  0  0  0  0  0  0  0
  -33.2700   15.3650  -34.7480 H   0  0  0  0  0  0  0  0  0  0  0  0
  -33.0060   13.6450  -34.3750 H   0  0  0  0  0  0  0  0  0  0  0  0
  -30.5430   13.1370  -20.2380 H   0  0  0  0  0  0  0  0  0  0  0  0
  -31.2710   14.5420  -21.0550 H   0  0  0  0  0  0  0  0  0  0  0  0
  -28.4420   13.5640  -21.0600 H   0  0  0  0  0  0  0  0  0  0  0  0
  -29.0810   15.2200  -20.9250 H   0  0  0  0  0  0  0  0  0  0  0  0
  -28.4790   14.3490  -25.3780 H   0  0  0  0  0  0  0  0  0  0  0  0
  -29.6300   15.6640  -27.1220 H   0  0  0  0  0  0  0  0  0  0  0  0
  -31.9320   17.6560  -24.1080 H   0  0  0  0  0  0  0  0  0  0  0  0
  -30.7790   16.3410  -22.3570 H   0  0  0  0  0  0  0  0  0  0  0  0
  -30.7300   18.1990  -27.2780 H   0  0  0  0  0  0  0  0  0  0  0  0
  -32.2280   18.2540  -26.3180 H   0  0  0  0  0  0  0  0  0  0  0  0
  -31.6010   16.0490  -28.0620 H   0  0  0  0  0  0  0  0  0  0  0  0
  -34.1560   17.0310  -26.9920 H   0  0  0  0  0  0  0  0  0  0  0  0
  -33.3480   15.4830  -26.6500 H   0  0  0  0  0  0  0  0  0  0  0  0
  -35.3970   15.3900  -28.1610 H   0  0  0  0  0  0  0  0  0  0  0  0
  -33.9270   14.5850  -28.7630 H   0  0  0  0  0  0  0  0  0  0  0  0
  -33.3440   17.5360  -31.1080 H   0  0  0  0  0  0  0  0  0  0  0  0
  -32.5640   16.0090  -30.6290 H   0  0  0  0  0  0  0  0  0  0  0  0
  -31.3840   17.8190  -29.5680 H   0  0  0  0  0  0  0  0  0  0  0  0
  -32.9020   18.5280  -28.9650 H   0  0  0  0  0  0  0  0  0  0  0  0
  -36.8970   17.0340  -30.4200 H   0  0  0  0  0  0  0  0  0  0  0  0
  -33.3920   13.1840  -32.0140 H   0  0  0  0  0  0  0  0  0  0  0  0
  -32.9650   14.3320  -30.7650 H   0  0  0  0  0  0  0  0  0  0  0  0
  -41.6050   17.0800  -30.7070 H   0  0  0  0  0  0  0  0  0  0  0  0
  -42.2800   17.4040  -33.0650 H   0  0  0  0  0  0  0  0  0  0  0  0
  -40.6960   16.8710  -34.8850 H   0  0  0  0  0  0  0  0  0  0  0  0
  -38.4420   16.0340  -34.3660 H   0  0  0  0  0  0  0  0  0  0  0  0
  -40.0190   16.4160  -29.2790 H   0  0  0  0  0  0  0  0  0  0  0  0
  1 15  1  0  0  0  0
  1 31  1  0  0  0  0
  1 68  1  0  0  0  0
  2 15  1  0  0  0  0
  2 17  1  0  0  0  0
  2 18  2  0  0  0  0
  3 16  1  0  0  0  0
  3 69  1  0  0  0  0
  3 70  1  0  0  0  0
  3 71  1  0  0  0  0
  4 16  1  0  0  0  0
  4 72  1  0  0  0  0
  4 73  1  0  0  0  0
  4 74  1  0  0  0  0
  5 16  1  0  0  0  0
  5 75  1  0  0  0  0
  5 76  1  0  0  0  0
  5 77  1  0  0  0  0
  6  8  1  0  0  0  0
  6 17  1  0  0  0  0
  6 19  1  0  0  0  0
  6 78  1  0  0  0  0
  7 17  1  0  0  0  0
  7 20  1  0  0  0  0
  7 79  1  0  0  0  0
  7 80  1  0  0  0  0
  8 22  2  0  0  0  0
  8 23  1  0  0  0  0
  9 10  2  0  0  0  0
  9 25  1  0  0  0  0
  9 37  1  0  0  0  0
 10 11  1  0  0  0  0
 10 81  1  0  0  0  0
 11 26  2  0  0  0  0
 11 27  1  0  0  0  0
 12 25  2  0  0  0  0
 12 26  1  0  0  0  0
 12 82  1  0  0  0  0
 13 27  2  0  0  0  0
 13 28  1  0  0  0  0
 13 30  1  0  0  0  0
 14 28  2  0  0  0  0
 14 29  1  0  0  0  0
 14 83  1  0  0  0  0
 15 16  1  0  0  0  0
 15 84  1  0  0  0  0
 19 20  1  0  0  0  0
 19 85  1  0  0  0  0
 19 86  1  0  0  0  0
 20 21  1  0  0  0  0
 20 87  1  0  0  0  0
 21 88  1  0  0  0  0
 23 24  1  0  0  0  0
 23 89  1  0  0  0  0
 24 25  1  0  0  0  0
 24 90  1  0  0  0  0
 24 91  1  0  0  0  0
 26 92  1  0  0  0  0
 27 29  1  0  0  0  0
 30 93  1  0  0  0  0
 30 94  1  0  0  0  0
 30 95  1  0  0  0  0
 31 32  1  0  0  0  0
 31 33  2  0  0  0  0
 32 34  1  0  0  0  0
 32 35  1  0  0  0  0
 32 36  1  0  0  0  0
 35 36  1  0  0  0  0
 35 96  1  0  0  0  0
 35 97  1  0  0  0  0
 36 98  1  0  0  0  0
 36 99  1  0  0  0  0
 37 38  1  0  0  0  0
 38 39  1  0  0  0  0
 38100  1  0  0  0  0
 38101  1  0  0  0  0
 39 40  1  0  0  0  0
 39102  1  0  0  0  0
 39103  1  0  0  0  0
 40 41  1  0  0  0  0
 41 42  1  0  0  0  0
 41 46  2  0  0  0  0
 42 43  2  0  0  0  0
 42104  1  0  0  0  0
 43 44  1  0  0  0  0
 43105  1  0  0  0  0
 44 45  2  0  0  0  0
 44 47  1  0  0  0  0
 45 46  1  0  0  0  0
 45106  1  0  0  0  0
 46107  1  0  0  0  0
 47 48  1  0  0  0  0
 47108  1  0  0  0  0
 47109  1  0  0  0  0
 48 49  1  0  0  0  0
 48 53  1  0  0  0  0
 48110  1  0  0  0  0
 49 50  1  0  0  0  0
 49111  1  0  0  0  0
 49112  1  0  0  0  0
 50 51  1  0  0  0  0
 50113  1  0  0  0  0
 50114  1  0  0  0  0
 51 52  1  0  0  0  0
 51 54  1  0  0  0  0
 52 53  1  0  0  0  0
 52115  1  0  0  0  0
 52116  1  0  0  0  0
 53117  1  0  0  0  0
 53118  1  0  0  0  0
 54 55  1  0  0  0  0
 54 59  2  0  0  0  0
 55 56  2  0  0  0  0
 55119  1  0  0  0  0
 56 57  1  0  0  0  0
 56 61  1  0  0  0  0
 57 58  2  0  0  0  0
 58 59  1  0  0  0  0
 59 60  1  0  0  0  0
 60120  1  0  0  0  0
 60121  1  0  0  0  0
 61 62  1  0  0  0  0
 61 66  2  0  0  0  0
 62 63  2  0  0  0  0
 62 67  1  0  0  0  0
 63 64  1  0  0  0  0
 63122  1  0  0  0  0
 64 65  2  0  0  0  0
 64123  1  0  0  0  0
 65 66  1  0  0  0  0
 65124  1  0  0  0  0
 66125  1  0  0  0  0
 67126  1  0  0  0  0
M  CHG  1  48   1
M  END
$$$$
p8
  MOE2018           3D

122129  0  0  1  0  0  0  0  0999 V2000
  -29.6250   14.4090  -31.4480 N   0  0  0  0  0  0  0  0  0  0  0  0
  -30.5210   13.4420  -29.3360 C   0  0  0  0  0  0  0  0  0  0  0  0
  -27.7620   13.5250  -28.2020 C   0  0  0  0  0  0  0  0  0  0  0  0
  -28.1460   15.7580  -29.2820 C   0  0  0  0  0  0  0  0  0  0  0  0
  -26.7750   14.0300  -30.4130 C   0  0  0  0  0  0  0  0  0  0  0  0
  -32.4300   12.1360  -28.5500 C   0  0  3  0  0  0  0  0  0  0  0  0
  -30.7680   10.9790  -29.8030 C   0  0  0  0  0  0  0  0  0  0  0  0
  -32.6030   12.4650  -27.0470 C   0  0  0  0  0  0  0  0  0  0  0  0
  -30.2930   11.7710  -22.7610 C   0  0  0  0  0  0  0  0  0  0  0  0
  -29.3350   11.0520  -22.0560 C   0  0  0  0  0  0  0  0  0  0  0  0
  -28.8400    9.8500  -22.5690 C   0  0  0  0  0  0  0  0  0  0  0  0
  -30.2900   10.1250  -24.5010 C   0  0  0  0  0  0  0  0  0  0  0  0
  -27.8290    8.6970  -20.5230 C   0  0  0  0  0  0  0  0  0  0  0  0
  -25.9140    7.8260  -21.1240 C   0  0  0  0  0  0  0  0  0  0  0  0
  -29.2720   13.6140  -30.2620 C   0  0  3  0  0  0  0  0  0  0  0  0
  -28.0330   14.2380  -29.5430 C   0  0  0  0  0  0  0  0  0  0  0  0
  -31.0580   12.2260  -29.0890 N   0  0  0  0  0  0  0  0  0  0  0  0
  -31.0620   14.4460  -28.8600 O   0  0  0  0  0  0  0  0  0  0  0  0
  -32.9250   10.7290  -28.9060 C   0  0  0  0  0  0  0  0  0  0  0  0
  -32.1380   10.4060  -30.1690 C   0  0  3  0  0  0  0  0  0  0  0  0
  -32.7210   11.0980  -31.2610 O   0  0  0  0  0  0  0  0  0  0  0  0
  -33.5770   13.1120  -26.6670 O   0  0  0  0  0  0  0  0  0  0  0  0
  -31.6590   12.0660  -26.1960 N   0  0  0  0  0  0  0  0  0  0  0  0
  -31.8280   12.1330  -24.7480 C   0  0  0  0  0  0  0  0  0  0  0  0
  -30.7770   11.3330  -23.9960 C   0  0  0  0  0  0  0  0  0  0  0  0
  -29.3300    9.3990  -23.8010 C   0  0  0  0  0  0  0  0  0  0  0  0
  -27.8400    9.0780  -21.8410 C   0  0  0  0  0  0  0  0  0  0  0  0
  -26.7340    7.9990  -20.1280 N   0  0  0  0  0  0  0  0  0  0  0  0
  -26.4220    8.5060  -22.6190 S   0  0  0  0  0  0  0  0  0  0  0  0
  -28.9200    8.9940  -19.5220 C   0  0  0  0  0  0  0  0  0  0  0  0
  -30.5010   13.9800  -32.3950 C   0  0  0  0  0  0  0  0  0  0  0  0
  -31.0070   15.0130  -33.4110 C   0  0  0  0  0  0  0  0  0  0  0  0
  -30.8380   12.8060  -32.3790 O   0  0  0  0  0  0  0  0  0  0  0  0
  -30.8910   16.3140  -32.9840 F   0  0  0  0  0  0  0  0  0  0  0  0
  -30.8180   14.8160  -34.8900 C   0  0  0  0  0  0  0  0  0  0  0  0
  -32.1950   14.7480  -34.2950 C   0  0  0  0  0  0  0  0  0  0  0  0
  -30.7810   12.9210  -22.2010 O   0  0  0  0  0  0  0  0  0  0  0  0
  -29.9630   14.1130  -22.1980 C   0  0  0  0  0  0  0  0  0  0  0  0
  -30.3130   15.0130  -23.3630 C   0  0  0  0  0  0  0  0  0  0  0  0
  -29.5720   14.9630  -24.5410 C   0  0  0  0  0  0  0  0  0  0  0  0
  -29.9200   15.7660  -25.6210 C   0  0  0  0  0  0  0  0  0  0  0  0
  -31.0140   16.6250  -25.5360 C   0  0  0  0  0  0  0  0  0  0  0  0
  -31.7590   16.6710  -24.3580 C   0  0  0  0  0  0  0  0  0  0  0  0
  -31.4090   15.8680  -23.2780 C   0  0  0  0  0  0  0  0  0  0  0  0
  -31.3890   17.4940  -26.7100 C   0  0  0  0  0  0  0  0  0  0  0  0
  -32.1460   16.7770  -27.7890 N   0  3  0  0  0  0  0  0  0  0  0  0
  -33.5240   16.2650  -27.3520 C   0  0  0  0  0  0  0  0  0  0  0  0
  -34.3700   15.6160  -28.4750 C   0  0  0  0  0  0  0  0  0  0  0  0
  -34.3820   16.3850  -29.7510 N   0  0  0  0  0  0  0  0  0  0  0  0
  -33.0360   16.8210  -30.2120 C   0  0  0  0  0  0  0  0  0  0  0  0
  -32.2340   17.5400  -29.1080 C   0  0  0  0  0  0  0  0  0  0  0  0
  -35.1940   15.7840  -30.7580 C   0  0  0  0  0  0  0  0  0  0  0  0
  -36.4410   16.3410  -30.9790 C   0  0  0  0  0  0  0  0  0  0  0  0
  -37.2710   15.7840  -31.9530 C   0  0  0  0  0  0  0  0  0  0  0  0
  -36.8410   14.7190  -32.6730 N   0  0  0  0  0  0  0  0  0  0  0  0
  -35.6420   14.1630  -32.4710 N   0  0  0  0  0  0  0  0  0  0  0  0
  -34.8300   14.6610  -31.5390 C   0  0  0  0  0  0  0  0  0  0  0  0
  -33.6350   13.9900  -31.3810 N   0  0  0  0  0  0  0  0  0  0  0  0
  -38.5930   16.3340  -32.2540 C   0  0  0  0  0  0  0  0  0  0  0  0
  -39.5250   16.6720  -31.2540 C   0  0  0  0  0  0  0  0  0  0  0  0
  -40.7750   17.2020  -31.5670 C   0  0  0  0  0  0  0  0  0  0  0  0
  -41.1220   17.4000  -32.8980 C   0  0  0  0  0  0  0  0  0  0  0  0
  -40.2220   17.0660  -33.9070 C   0  0  0  0  0  0  0  0  0  0  0  0
  -38.9750   16.5380  -33.5880 C   0  0  0  0  0  0  0  0  0  0  0  0
  -39.2400   16.4770  -29.9330 O   0  0  0  0  0  0  0  0  0  0  0  0
  -29.1970   15.3160  -31.5640 H   0  0  0  0  0  0  0  0  0  0  0  0
  -26.8950   13.9760  -27.7190 H   0  0  0  0  0  0  0  0  0  0  0  0
  -27.5670   12.4680  -28.3850 H   0  0  0  0  0  0  0  0  0  0  0  0
  -28.6330   13.6270  -27.5540 H   0  0  0  0  0  0  0  0  0  0  0  0
  -27.2440   16.1080  -28.7800 H   0  0  0  0  0  0  0  0  0  0  0  0
  -29.0130   15.9550  -28.6510 H   0  0  0  0  0  0  0  0  0  0  0  0
  -28.2610   16.2820  -30.2310 H   0  0  0  0  0  0  0  0  0  0  0  0
  -25.9110   14.4650  -29.9120 H   0  0  0  0  0  0  0  0  0  0  0  0
  -26.9170   14.5150  -31.3790 H   0  0  0  0  0  0  0  0  0  0  0  0
  -26.6090   12.9630  -30.5630 H   0  0  0  0  0  0  0  0  0  0  0  0
  -33.0330   12.9210  -29.0060 H   0  0  0  0  0  0  0  0  0  0  0  0
  -30.2220   10.2880  -29.1610 H   0  0  0  0  0  0  0  0  0  0  0  0
  -30.1840   11.1790  -30.7010 H   0  0  0  0  0  0  0  0  0  0  0  0
  -28.9720   11.4230  -21.1090 H   0  0  0  0  0  0  0  0  0  0  0  0
  -30.6620    9.7510  -25.4430 H   0  0  0  0  0  0  0  0  0  0  0  0
  -24.9810    7.2930  -21.0190 H   0  0  0  0  0  0  0  0  0  0  0  0
  -28.9750   12.6090  -30.5600 H   0  0  0  0  0  0  0  0  0  0  0  0
  -33.9980   10.7270  -29.1000 H   0  0  0  0  0  0  0  0  0  0  0  0
  -32.6990   10.0200  -28.1100 H   0  0  0  0  0  0  0  0  0  0  0  0
  -32.1070    9.3560  -30.4610 H   0  0  0  0  0  0  0  0  0  0  0  0
  -32.7600   12.0280  -31.0280 H   0  0  0  0  0  0  0  0  0  0  0  0
  -30.7930   11.7030  -26.5670 H   0  0  0  0  0  0  0  0  0  0  0  0
  -32.8130   11.7410  -24.4940 H   0  0  0  0  0  0  0  0  0  0  0  0
  -31.7610   13.1760  -24.4370 H   0  0  0  0  0  0  0  0  0  0  0  0
  -28.9570    8.4740  -24.2150 H   0  0  0  0  0  0  0  0  0  0  0  0
  -29.7160    9.5580  -20.0090 H   0  0  0  0  0  0  0  0  0  0  0  0
  -28.5090    9.5800  -18.7000 H   0  0  0  0  0  0  0  0  0  0  0  0
  -29.3230    8.0580  -19.1350 H   0  0  0  0  0  0  0  0  0  0  0  0
  -30.3400   13.9100  -35.2620 H   0  0  0  0  0  0  0  0  0  0  0  0
  -30.5380   15.6600  -35.5210 H   0  0  0  0  0  0  0  0  0  0  0  0
  -32.9140   15.5420  -34.4940 H   0  0  0  0  0  0  0  0  0  0  0  0
  -32.7160   13.7930  -34.2350 H   0  0  0  0  0  0  0  0  0  0  0  0
  -28.9140   13.8260  -22.2720 H   0  0  0  0  0  0  0  0  0  0  0  0
  -30.1270   14.6550  -21.2670 H   0  0  0  0  0  0  0  0  0  0  0  0
  -28.7240   14.2980  -24.6160 H   0  0  0  0  0  0  0  0  0  0  0  0
  -29.3390   15.7240  -26.5310 H   0  0  0  0  0  0  0  0  0  0  0  0
  -32.6100   17.3320  -24.2840 H   0  0  0  0  0  0  0  0  0  0  0  0
  -31.9900   15.9080  -22.3690 H   0  0  0  0  0  0  0  0  0  0  0  0
  -30.4730   17.8960  -27.1440 H   0  0  0  0  0  0  0  0  0  0  0  0
  -32.0080   18.3130  -26.3450 H   0  0  0  0  0  0  0  0  0  0  0  0
  -31.5750   15.9630  -27.9660 H   0  0  0  0  0  0  0  0  0  0  0  0
  -34.0860   17.1080  -26.9500 H   0  0  0  0  0  0  0  0  0  0  0  0
  -33.3750   15.5220  -26.5690 H   0  0  0  0  0  0  0  0  0  0  0  0
  -35.3970   15.5250  -28.1210 H   0  0  0  0  0  0  0  0  0  0  0  0
  -33.9660   14.6240  -28.6770 H   0  0  0  0  0  0  0  0  0  0  0  0
  -33.1590   17.5020  -31.0540 H   0  0  0  0  0  0  0  0  0  0  0  0
  -32.4760   15.9430  -30.5340 H   0  0  0  0  0  0  0  0  0  0  0  0
  -31.2210   17.7030  -29.4750 H   0  0  0  0  0  0  0  0  0  0  0  0
  -32.7090   18.5020  -28.9140 H   0  0  0  0  0  0  0  0  0  0  0  0
  -36.7680   17.1960  -30.4050 H   0  0  0  0  0  0  0  0  0  0  0  0
  -33.4300   13.1830  -31.9520 H   0  0  0  0  0  0  0  0  0  0  0  0
  -32.9650   14.3060  -30.6940 H   0  0  0  0  0  0  0  0  0  0  0  0
  -41.4700   17.4570  -30.7800 H   0  0  0  0  0  0  0  0  0  0  0  0
  -42.0880   17.8120  -33.1500 H   0  0  0  0  0  0  0  0  0  0  0  0
  -40.4930   17.2170  -34.9410 H   0  0  0  0  0  0  0  0  0  0  0  0
  -38.2890   16.2810  -34.3820 H   0  0  0  0  0  0  0  0  0  0  0  0
  -39.9400   16.7270  -29.3260 H   0  0  0  0  0  0  0  0  0  0  0  0
  1 15  1  0  0  0  0
  1 31  1  0  0  0  0
  1 66  1  0  0  0  0
  2 15  1  0  0  0  0
  2 17  1  0  0  0  0
  2 18  2  0  0  0  0
  3 16  1  0  0  0  0
  3 67  1  0  0  0  0
  3 68  1  0  0  0  0
  3 69  1  0  0  0  0
  4 16  1  0  0  0  0
  4 70  1  0  0  0  0
  4 71  1  0  0  0  0
  4 72  1  0  0  0  0
  5 16  1  0  0  0  0
  5 73  1  0  0  0  0
  5 74  1  0  0  0  0
  5 75  1  0  0  0  0
  6  8  1  0  0  0  0
  6 17  1  0  0  0  0
  6 19  1  0  0  0  0
  6 76  1  0  0  0  0
  7 17  1  0  0  0  0
  7 20  1  0  0  0  0
  7 77  1  0  0  0  0
  7 78  1  0  0  0  0
  8 22  2  0  0  0  0
  8 23  1  0  0  0  0
  9 10  2  0  0  0  0
  9 25  1  0  0  0  0
  9 37  1  0  0  0  0
 10 11  1  0  0  0  0
 10 79  1  0  0  0  0
 11 26  2  0  0  0  0
 11 27  1  0  0  0  0
 12 25  2  0  0  0  0
 12 26  1  0  0  0  0
 12 80  1  0  0  0  0
 13 27  2  0  0  0  0
 13 28  1  0  0  0  0
 13 30  1  0  0  0  0
 14 28  2  0  0  0  0
 14 29  1  0  0  0  0
 14 81  1  0  0  0  0
 15 16  1  0  0  0  0
 15 82  1  0  0  0  0
 19 20  1  0  0  0  0
 19 83  1  0  0  0  0
 19 84  1  0  0  0  0
 20 21  1  0  0  0  0
 20 85  1  0  0  0  0
 21 86  1  0  0  0  0
 23 24  1  0  0  0  0
 23 87  1  0  0  0  0
 24 25  1  0  0  0  0
 24 88  1  0  0  0  0
 24 89  1  0  0  0  0
 26 90  1  0  0  0  0
 27 29  1  0  0  0  0
 30 91  1  0  0  0  0
 30 92  1  0  0  0  0
 30 93  1  0  0  0  0
 31 32  1  0  0  0  0
 31 33  2  0  0  0  0
 32 34  1  0  0  0  0
 32 35  1  0  0  0  0
 32 36  1  0  0  0  0
 35 36  1  0  0  0  0
 35 94  1  0  0  0  0
 35 95  1  0  0  0  0
 36 96  1  0  0  0  0
 36 97  1  0  0  0  0
 37 38  1  0  0  0  0
 38 39  1  0  0  0  0
 38 98  1  0  0  0  0
 38 99  1  0  0  0  0
 39 40  1  0  0  0  0
 39 44  2  0  0  0  0
 40 41  2  0  0  0  0
 40100  1  0  0  0  0
 41 42  1  0  0  0  0
 41101  1  0  0  0  0
 42 43  2  0  0  0  0
 42 45  1  0  0  0  0
 43 44  1  0  0  0  0
 43102  1  0  0  0  0
 44103  1  0  0  0  0
 45 46  1  0  0  0  0
 45104  1  0  0  0  0
 45105  1  0  0  0  0
 46 47  1  0  0  0  0
 46 51  1  0  0  0  0
 46106  1  0  0  0  0
 47 48  1  0  0  0  0
 47107  1  0  0  0  0
 47108  1  0  0  0  0
 48 49  1  0  0  0  0
 48109  1  0  0  0  0
 48110  1  0  0  0  0
 49 50  1  0  0  0  0
 49 52  1  0  0  0  0
 50 51  1  0  0  0  0
 50111  1  0  0  0  0
 50112  1  0  0  0  0
 51113  1  0  0  0  0
 51114  1  0  0  0  0
 52 53  1  0  0  0  0
 52 57  2  0  0  0  0
 53 54  2  0  0  0  0
 53115  1  0  0  0  0
 54 55  1  0  0  0  0
 54 59  1  0  0  0  0
 55 56  2  0  0  0  0
 56 57  1  0  0  0  0
 57 58  1  0  0  0  0
 58116  1  0  0  0  0
 58117  1  0  0  0  0
 59 60  1  0  0  0  0
 59 64  2  0  0  0  0
 60 61  2  0  0  0  0
 60 65  1  0  0  0  0
 61 62  1  0  0  0  0
 61118  1  0  0  0  0
 62 63  2  0  0  0  0
 62119  1  0  0  0  0
 63 64  1  0  0  0  0
 63120  1  0  0  0  0
 64121  1  0  0  0  0
 65122  1  0  0  0  0
M  CHG  1  46   1
M  END
$$$$
p9
  MOE2018           3D

132139  0  0  1  0  0  0  0  0999 V2000
  -28.0980   14.9600  -31.0550 N   0  0  0  0  0  0  0  0  0  0  0  0
  -29.3650   13.9140  -29.1720 C   0  0  0  0  0  0  0  0  0  0  0  0
  -26.6930   12.9440  -28.0880 C   0  0  0  0  0  0  0  0  0  0  0  0
  -26.6450   15.4150  -28.3940 C   0  0  0  0  0  0  0  0  0  0  0  0
  -25.4990   13.9210  -30.0240 C   0  0  0  0  0  0  0  0  0  0  0  0
  -31.4740   12.8980  -28.5170 C   0  0  3  0  0  0  0  0  0  0  0  0
  -30.0560   11.6220  -29.9400 C   0  0  0  0  0  0  0  0  0  0  0  0
  -31.5960   13.0970  -26.9880 C   0  0  0  0  0  0  0  0  0  0  0  0
  -30.3840   11.3120  -22.6910 C   0  0  0  0  0  0  0  0  0  0  0  0
  -30.2530   10.1040  -22.0190 C   0  0  0  0  0  0  0  0  0  0  0  0
  -30.2850    8.9000  -22.7280 C   0  0  0  0  0  0  0  0  0  0  0  0
  -30.5620   10.1690  -24.7860 C   0  0  0  0  0  0  0  0  0  0  0  0
  -30.7460    7.1700  -20.8960 C   0  0  0  0  0  0  0  0  0  0  0  0
  -29.5310    5.4020  -21.3300 C   0  0  0  0  0  0  0  0  0  0  0  0
  -28.0450   13.9270  -30.0080 C   0  0  3  0  0  0  0  0  0  0  0  0
  -26.7550   14.0700  -29.1400 C   0  0  0  0  0  0  0  0  0  0  0  0
  -30.1090   12.7930  -29.0600 N   0  0  0  0  0  0  0  0  0  0  0  0
  -29.7890   14.9670  -28.6820 O   0  0  0  0  0  0  0  0  0  0  0  0
  -32.2220   11.6590  -29.0190 C   0  0  0  0  0  0  0  0  0  0  0  0
  -31.5120   11.3600  -30.3320 C   0  0  3  0  0  0  0  0  0  0  0  0
  -31.9590   12.2850  -31.3110 O   0  0  0  0  0  0  0  0  0  0  0  0
  -32.5860   13.6650  -26.5320 O   0  0  0  0  0  0  0  0  0  0  0  0
  -30.5900   12.6890  -26.2130 N   0  0  0  0  0  0  0  0  0  0  0  0
  -30.6260   12.7340  -24.7520 C   0  0  0  0  0  0  0  0  0  0  0  0
  -30.5220   11.3740  -24.0790 C   0  0  0  0  0  0  0  0  0  0  0  0
  -30.4440    8.9520  -24.1190 C   0  0  0  0  0  0  0  0  0  0  0  0
  -30.1460    7.6180  -22.0460 C   0  0  0  0  0  0  0  0  0  0  0  0
  -30.3870    5.9220  -20.4980 N   0  0  0  0  0  0  0  0  0  0  0  0
  -29.1030    6.4010  -22.6600 S   0  0  0  0  0  0  0  0  0  0  0  0
  -31.7470    7.9460  -20.0740 C   0  0  0  0  0  0  0  0  0  0  0  0
  -29.0740   14.9960  -32.0020 C   0  0  0  0  0  0  0  0  0  0  0  0
  -29.1230   16.2050  -32.9360 C   0  0  0  0  0  0  0  0  0  0  0  0
  -29.8900   14.0860  -32.0410 O   0  0  0  0  0  0  0  0  0  0  0  0
  -29.5000   17.3600  -32.3130 F   0  0  0  0  0  0  0  0  0  0  0  0
  -28.1200   16.3820  -34.0420 C   0  0  0  0  0  0  0  0  0  0  0  0
  -29.5550   16.0840  -34.3700 C   0  0  0  0  0  0  0  0  0  0  0  0
  -30.3750   12.4660  -21.9560 O   0  0  0  0  0  0  0  0  0  0  0  0
  -31.6370   12.9660  -21.4570 C   0  0  0  0  0  0  0  0  0  0  0  0
  -30.1270   17.5690  -22.6460 O   0  0  0  0  0  0  0  0  0  0  0  0
  -30.9150   16.7960  -21.7150 C   0  0  0  0  0  0  0  0  0  0  0  0
  -30.9890   15.3230  -22.1270 C   0  0  0  0  0  0  0  0  0  0  0  0
  -31.5310   14.4260  -21.0020 C   0  0  0  0  0  0  0  0  0  0  0  0
  -30.4570   17.6520  -23.9720 C   0  0  0  0  0  0  0  0  0  0  0  0
  -29.5370   17.1910  -24.9060 C   0  0  0  0  0  0  0  0  0  0  0  0
  -29.8430   17.2690  -26.2590 C   0  0  0  0  0  0  0  0  0  0  0  0
  -31.0570   17.8180  -26.6770 C   0  0  0  0  0  0  0  0  0  0  0  0
  -31.9730   18.2770  -25.7260 C   0  0  0  0  0  0  0  0  0  0  0  0
  -31.6770   18.1920  -24.3680 C   0  0  0  0  0  0  0  0  0  0  0  0
  -31.3630   17.9130  -28.1530 C   0  0  0  0  0  0  0  0  0  0  0  0
  -32.0110   16.6900  -28.7320 N   0  3  0  0  0  0  0  0  0  0  0  0
  -33.3270   16.3140  -28.0220 C   0  0  0  0  0  0  0  0  0  0  0  0
  -34.2550   15.3000  -28.7400 C   0  0  0  0  0  0  0  0  0  0  0  0
  -34.3590   15.5220  -30.2080 N   0  0  0  0  0  0  0  0  0  0  0  0
  -33.0550   15.6800  -30.8980 C   0  0  0  0  0  0  0  0  0  0  0  0
  -32.1750   16.7720  -30.2540 C   0  0  0  0  0  0  0  0  0  0  0  0
  -35.4680   14.9050  -30.8890 C   0  0  0  0  0  0  0  0  0  0  0  0
  -36.7380   15.1870  -30.4030 C   0  0  0  0  0  0  0  0  0  0  0  0
  -37.8560   14.6530  -31.0410 C   0  0  0  0  0  0  0  0  0  0  0  0
  -37.7010   13.8910  -32.1470 N   0  0  0  0  0  0  0  0  0  0  0  0
  -36.4930   13.6060  -32.6370 N   0  0  0  0  0  0  0  0  0  0  0  0
  -35.3950   14.0690  -32.0360 C   0  0  0  0  0  0  0  0  0  0  0  0
  -34.2270   13.6180  -32.6190 N   0  0  0  0  0  0  0  0  0  0  0  0
  -39.2100   14.9260  -30.5660 C   0  0  0  0  0  0  0  0  0  0  0  0
  -39.5800   14.7860  -29.2140 C   0  0  0  0  0  0  0  0  0  0  0  0
  -40.8720   15.0640  -28.7780 C   0  0  0  0  0  0  0  0  0  0  0  0
  -41.8290   15.4850  -29.6940 C   0  0  0  0  0  0  0  0  0  0  0  0
  -41.4920   15.6210  -31.0380 C   0  0  0  0  0  0  0  0  0  0  0  0
  -40.1990   15.3430  -31.4690 C   0  0  0  0  0  0  0  0  0  0  0  0
  -38.6780   14.3580  -28.2830 O   0  0  0  0  0  0  0  0  0  0  0  0
  -27.3810   15.6710  -31.0710 H   0  0  0  0  0  0  0  0  0  0  0  0
  -25.7890   13.0550  -27.4900 H   0  0  0  0  0  0  0  0  0  0  0  0
  -26.6790   11.9770  -28.5910 H   0  0  0  0  0  0  0  0  0  0  0  0
  -27.5670   13.0040  -27.4400 H   0  0  0  0  0  0  0  0  0  0  0  0
  -25.7220   15.4350  -27.8150 H   0  0  0  0  0  0  0  0  0  0  0  0
  -27.4970   15.5300  -27.7240 H   0  0  0  0  0  0  0  0  0  0  0  0
  -26.6380   16.2310  -29.1160 H   0  0  0  0  0  0  0  0  0  0  0  0
  -24.6060   14.0230  -29.4070 H   0  0  0  0  0  0  0  0  0  0  0  0
  -25.5010   14.6950  -30.7910 H   0  0  0  0  0  0  0  0  0  0  0  0
  -25.5030   12.9400  -30.4980 H   0  0  0  0  0  0  0  0  0  0  0  0
  -31.9180   13.8260  -28.8780 H   0  0  0  0  0  0  0  0  0  0  0  0
  -29.6400   10.7640  -29.4120 H   0  0  0  0  0  0  0  0  0  0  0  0
  -29.4530   11.8330  -30.8230 H   0  0  0  0  0  0  0  0  0  0  0  0
  -30.1260   10.0950  -20.9470 H   0  0  0  0  0  0  0  0  0  0  0  0
  -30.6850   10.1820  -25.8590 H   0  0  0  0  0  0  0  0  0  0  0  0
  -29.1190    4.4130  -21.1940 H   0  0  0  0  0  0  0  0  0  0  0  0
  -27.9770   12.9480  -30.4810 H   0  0  0  0  0  0  0  0  0  0  0  0
  -33.2780   11.8750  -29.1820 H   0  0  0  0  0  0  0  0  0  0  0  0
  -32.1240   10.8290  -28.3200 H   0  0  0  0  0  0  0  0  0  0  0  0
  -31.6780   10.3670  -30.7500 H   0  0  0  0  0  0  0  0  0  0  0  0
  -31.8210   13.1680  -30.9610 H   0  0  0  0  0  0  0  0  0  0  0  0
  -29.7580   12.3300  -26.6600 H   0  0  0  0  0  0  0  0  0  0  0  0
  -31.5660   13.1940  -24.4480 H   0  0  0  0  0  0  0  0  0  0  0  0
  -29.7940   13.3490  -24.4090 H   0  0  0  0  0  0  0  0  0  0  0  0
  -30.4760    8.0320  -24.6840 H   0  0  0  0  0  0  0  0  0  0  0  0
  -31.9180    8.9190  -20.5340 H   0  0  0  0  0  0  0  0  0  0  0  0
  -31.3590    8.0840  -19.0650 H   0  0  0  0  0  0  0  0  0  0  0  0
  -32.6860    7.3950  -20.0300 H   0  0  0  0  0  0  0  0  0  0  0  0
  -27.3540   15.6250  -34.2090 H   0  0  0  0  0  0  0  0  0  0  0  0
  -27.7070   17.3690  -34.2500 H   0  0  0  0  0  0  0  0  0  0  0  0
  -30.1830   16.8550  -34.8170 H   0  0  0  0  0  0  0  0  0  0  0  0
  -29.8300   15.1110  -34.7760 H   0  0  0  0  0  0  0  0  0  0  0  0
  -31.9490   12.3540  -20.6100 H   0  0  0  0  0  0  0  0  0  0  0  0
  -32.3820   12.8970  -22.2490 H   0  0  0  0  0  0  0  0  0  0  0  0
  -31.9250   17.2050  -21.6810 H   0  0  0  0  0  0  0  0  0  0  0  0
  -30.4620   16.8640  -20.7260 H   0  0  0  0  0  0  0  0  0  0  0  0
  -29.9880   14.9840  -22.3940 H   0  0  0  0  0  0  0  0  0  0  0  0
  -31.6460   15.2340  -22.9920 H   0  0  0  0  0  0  0  0  0  0  0  0
  -30.8580   14.4830  -20.1460 H   0  0  0  0  0  0  0  0  0  0  0  0
  -32.5200   14.7800  -20.7110 H   0  0  0  0  0  0  0  0  0  0  0  0
  -28.5930   16.7760  -24.5830 H   0  0  0  0  0  0  0  0  0  0  0  0
  -29.1380   16.9030  -26.9910 H   0  0  0  0  0  0  0  0  0  0  0  0
  -32.9140   18.6990  -26.0460 H   0  0  0  0  0  0  0  0  0  0  0  0
  -32.3850   18.5410  -23.6310 H   0  0  0  0  0  0  0  0  0  0  0  0
  -30.4270   18.0870  -28.6850 H   0  0  0  0  0  0  0  0  0  0  0  0
  -32.0320   18.7590  -28.3090 H   0  0  0  0  0  0  0  0  0  0  0  0
  -31.3690   15.9310  -28.5540 H   0  0  0  0  0  0  0  0  0  0  0  0
  -33.8950   17.2330  -27.8770 H   0  0  0  0  0  0  0  0  0  0  0  0
  -33.0670   15.8900  -27.0520 H   0  0  0  0  0  0  0  0  0  0  0  0
  -35.2530   15.3800  -28.3080 H   0  0  0  0  0  0  0  0  0  0  0  0
  -33.8650   14.2960  -28.5700 H   0  0  0  0  0  0  0  0  0  0  0  0
  -33.2400   15.9480  -31.9380 H   0  0  0  0  0  0  0  0  0  0  0  0
  -32.5200   14.7310  -30.8570 H   0  0  0  0  0  0  0  0  0  0  0  0
  -31.1830   16.7070  -30.7010 H   0  0  0  0  0  0  0  0  0  0  0  0
  -32.6180   17.7400  -30.4900 H   0  0  0  0  0  0  0  0  0  0  0  0
  -36.8590   15.8170  -29.5340 H   0  0  0  0  0  0  0  0  0  0  0  0
  -34.2670   13.0010  -33.4180 H   0  0  0  0  0  0  0  0  0  0  0  0
  -33.3330   13.9050  -32.2460 H   0  0  0  0  0  0  0  0  0  0  0  0
  -41.1290   14.9530  -27.7350 H   0  0  0  0  0  0  0  0  0  0  0  0
  -42.8330   15.7060  -29.3630 H   0  0  0  0  0  0  0  0  0  0  0  0
  -42.2380   15.9440  -31.7490 H   0  0  0  0  0  0  0  0  0  0  0  0
  -39.9530   15.4500  -32.5150 H   0  0  0  0  0  0  0  0  0  0  0  0
  -39.0210   14.2850  -27.3890 H   0  0  0  0  0  0  0  0  0  0  0  0
  1 15  1  0  0  0  0
  1 31  1  0  0  0  0
  1 70  1  0  0  0  0
  2 15  1  0  0  0  0
  2 17  1  0  0  0  0
  2 18  2  0  0  0  0
  3 16  1  0  0  0  0
  3 71  1  0  0  0  0
  3 72  1  0  0  0  0
  3 73  1  0  0  0  0
  4 16  1  0  0  0  0
  4 74  1  0  0  0  0
  4 75  1  0  0  0  0
  4 76  1  0  0  0  0
  5 16  1  0  0  0  0
  5 77  1  0  0  0  0
  5 78  1  0  0  0  0
  5 79  1  0  0  0  0
  6  8  1  0  0  0  0
  6 17  1  0  0  0  0
  6 19  1  0  0  0  0
  6 80  1  0  0  0  0
  7 17  1  0  0  0  0
  7 20  1  0  0  0  0
  7 81  1  0  0  0  0
  7 82  1  0  0  0  0
  8 22  2  0  0  0  0
  8 23  1  0  0  0  0
  9 10  2  0  0  0  0
  9 25  1  0  0  0  0
  9 37  1  0  0  0  0
 10 11  1  0  0  0  0
 10 83  1  0  0  0  0
 11 26  2  0  0  0  0
 11 27  1  0  0  0  0
 12 25  2  0  0  0  0
 12 26  1  0  0  0  0
 12 84  1  0  0  0  0
 13 27  2  0  0  0  0
 13 28  1  0  0  0  0
 13 30  1  0  0  0  0
 14 28  2  0  0  0  0
 14 29  1  0  0  0  0
 14 85  1  0  0  0  0
 15 16  1  0  0  0  0
 15 86  1  0  0  0  0
 19 20  1  0  0  0  0
 19 87  1  0  0  0  0
 19 88  1  0  0  0  0
 20 21  1  0  0  0  0
 20 89  1  0  0  0  0
 21 90  1  0  0  0  0
 23 24  1  0  0  0  0
 23 91  1  0  0  0  0
 24 25  1  0  0  0  0
 24 92  1  0  0  0  0
 24 93  1  0  0  0  0
 26 94  1  0  0  0  0
 27 29  1  0  0  0  0
 30 95  1  0  0  0  0
 30 96  1  0  0  0  0
 30 97  1  0  0  0  0
 31 32  1  0  0  0  0
 31 33  2  0  0  0  0
 32 34  1  0  0  0  0
 32 35  1  0  0  0  0
 32 36  1  0  0  0  0
 35 36  1  0  0  0  0
 35 98  1  0  0  0  0
 35 99  1  0  0  0  0
 36100  1  0  0  0  0
 36101  1  0  0  0  0
 37 38  1  0  0  0  0
 38 42  1  0  0  0  0
 38102  1  0  0  0  0
 38103  1  0  0  0  0
 39 40  1  0  0  0  0
 39 43  1  0  0  0  0
 40 41  1  0  0  0  0
 40104  1  0  0  0  0
 40105  1  0  0  0  0
 41 42  1  0  0  0  0
 41106  1  0  0  0  0
 41107  1  0  0  0  0
 42108  1  0  0  0  0
 42109  1  0  0  0  0
 43 44  1  0  0  0  0
 43 48  2  0  0  0  0
 44 45  2  0  0  0  0
 44110  1  0  0  0  0
 45 46  1  0  0  0  0
 45111  1  0  0  0  0
 46 47  2  0  0  0  0
 46 49  1  0  0  0  0
 47 48  1  0  0  0  0
 47112  1  0  0  0  0
 48113  1  0  0  0  0
 49 50  1  0  0  0  0
 49114  1  0  0  0  0
 49115  1  0  0  0  0
 50 51  1  0  0  0  0
 50 55  1  0  0  0  0
 50116  1  0  0  0  0
 51 52  1  0  0  0  0
 51117  1  0  0  0  0
 51118  1  0  0  0  0
 52 53  1  0  0  0  0
 52119  1  0  0  0  0
 52120  1  0  0  0  0
 53 54  1  0  0  0  0
 53 56  1  0  0  0  0
 54 55  1  0  0  0  0
 54121  1  0  0  0  0
 54122  1  0  0  0  0
 55123  1  0  0  0  0
 55124  1  0  0  0  0
 56 57  1  0  0  0  0
 56 61  2  0  0  0  0
 57 58  2  0  0  0  0
 57125  1  0  0  0  0
 58 59  1  0  0  0  0
 58 63  1  0  0  0  0
 59 60  2  0  0  0  0
 60 61  1  0  0  0  0
 61 62  1  0  0  0  0
 62126  1  0  0  0  0
 62127  1  0  0  0  0
 63 64  1  0  0  0  0
 63 68  2  0  0  0  0
 64 65  2  0  0  0  0
 64 69  1  0  0  0  0
 65 66  1  0  0  0  0
 65128  1  0  0  0  0
 66 67  2  0  0  0  0
 66129  1  0  0  0  0
 67 68  1  0  0  0  0
 67130  1  0  0  0  0
 68131  1  0  0  0  0
 69132  1  0  0  0  0
M  CHG  1  50   1
M  END
$$$$
p10
  MOE2018           3D

129136  0  0  1  0  0  0  0  0999 V2000
  -29.1420   15.1380  -31.4060 N   0  0  0  0  0  0  0  0  0  0  0  0
  -30.1630   14.1400  -29.3650 C   0  0  0  0  0  0  0  0  0  0  0  0
  -27.4420   14.1460  -28.0960 C   0  0  0  0  0  0  0  0  0  0  0  0
  -27.8900   16.4340  -29.0040 C   0  0  0  0  0  0  0  0  0  0  0  0
  -26.3760   14.8740  -30.2070 C   0  0  0  0  0  0  0  0  0  0  0  0
  -32.0510   12.8110  -28.6180 C   0  0  3  0  0  0  0  0  0  0  0  0
  -30.3390   11.6680  -29.8130 C   0  0  0  0  0  0  0  0  0  0  0  0
  -32.2560   13.1600  -27.1250 C   0  0  0  0  0  0  0  0  0  0  0  0
  -30.2940   11.5610  -23.0700 C   0  0  0  0  0  0  0  0  0  0  0  0
  -30.2280   10.3700  -22.3580 C   0  0  0  0  0  0  0  0  0  0  0  0
  -31.1520    9.3510  -22.6070 C   0  0  0  0  0  0  0  0  0  0  0  0
  -32.1840   10.7550  -24.3020 C   0  0  0  0  0  0  0  0  0  0  0  0
  -30.9960    7.8840  -20.5190 C   0  0  0  0  0  0  0  0  0  0  0  0
  -31.0190    5.7940  -21.1660 C   0  0  0  0  0  0  0  0  0  0  0  0
  -28.8600   14.3340  -30.2050 C   0  0  3  0  0  0  0  0  0  0  0  0
  -27.6820   14.9530  -29.3890 C   0  0  0  0  0  0  0  0  0  0  0  0
  -30.6690   12.9140  -29.1180 N   0  0  0  0  0  0  0  0  0  0  0  0
  -30.7940   15.1350  -28.9950 O   0  0  0  0  0  0  0  0  0  0  0  0
  -32.5180   11.3940  -28.9660 C   0  0  0  0  0  0  0  0  0  0  0  0
  -31.6950   11.0770  -30.2070 C   0  0  3  0  0  0  0  0  0  0  0  0
  -32.2600   11.7670  -31.3110 O   0  0  0  0  0  0  0  0  0  0  0  0
  -33.2820   13.7390  -26.7670 O   0  0  0  0  0  0  0  0  0  0  0  0
  -31.2760   12.8520  -26.2750 N   0  0  0  0  0  0  0  0  0  0  0  0
  -31.3390   13.0700  -24.8350 C   0  0  0  0  0  0  0  0  0  0  0  0
  -31.2640   11.7720  -24.0550 C   0  0  0  0  0  0  0  0  0  0  0  0
  -32.1280    9.5600  -23.5900 C   0  0  0  0  0  0  0  0  0  0  0  0
  -31.1000    8.0940  -21.8700 C   0  0  0  0  0  0  0  0  0  0  0  0
  -30.9430    6.5830  -20.1340 N   0  0  0  0  0  0  0  0  0  0  0  0
  -31.1600    6.5860  -22.6850 S   0  0  0  0  0  0  0  0  0  0  0  0
  -30.9390    8.9690  -19.4710 C   0  0  0  0  0  0  0  0  0  0  0  0
  -30.0430   14.7490  -32.3480 C   0  0  0  0  0  0  0  0  0  0  0  0
  -30.5140   15.7890  -33.3680 C   0  0  0  0  0  0  0  0  0  0  0  0
  -30.4620   13.6030  -32.3130 O   0  0  0  0  0  0  0  0  0  0  0  0
  -30.7600   17.0200  -32.8230 F   0  0  0  0  0  0  0  0  0  0  0  0
  -29.9880   15.8090  -34.7770 C   0  0  0  0  0  0  0  0  0  0  0  0
  -31.4160   15.4240  -34.5140 C   0  0  0  0  0  0  0  0  0  0  0  0
  -29.3800   12.5400  -22.7830 O   0  0  0  0  0  0  0  0  0  0  0  0
  -29.5660   13.3270  -21.5800 C   0  0  0  0  0  0  0  0  0  0  0  0
  -28.9510   14.7240  -21.7070 C   0  0  0  0  0  0  0  0  0  0  0  0
  -32.9770   16.8530  -28.7200 N   0  3  0  0  0  0  0  0  0  0  0  0
  -34.3270   16.2620  -28.2540 C   0  0  0  0  0  0  0  0  0  0  0  0
  -34.9780   15.1720  -29.1480 C   0  0  0  0  0  0  0  0  0  0  0  0
  -34.8370   15.4280  -30.6050 N   0  0  0  0  0  0  0  0  0  0  0  0
  -33.4660   15.7810  -31.0380 C   0  0  0  0  0  0  0  0  0  0  0  0
  -32.9020   16.9790  -30.2460 C   0  0  0  0  0  0  0  0  0  0  0  0
  -35.7130   14.7250  -31.4990 C   0  0  0  0  0  0  0  0  0  0  0  0
  -37.0760   14.9010  -31.3140 C   0  0  0  0  0  0  0  0  0  0  0  0
  -37.9730   14.3080  -32.2020 C   0  0  0  0  0  0  0  0  0  0  0  0
  -37.5070   13.5840  -33.2460 N   0  0  0  0  0  0  0  0  0  0  0  0
  -36.2010   13.3890  -33.4390 N   0  0  0  0  0  0  0  0  0  0  0  0
  -35.3120   13.9120  -32.5920 C   0  0  0  0  0  0  0  0  0  0  0  0
  -34.0120   13.5380  -32.8640 N   0  0  0  0  0  0  0  0  0  0  0  0
  -39.4180   14.4820  -32.0690 C   0  0  0  0  0  0  0  0  0  0  0  0
  -40.0960   14.3120  -30.8460 C   0  0  0  0  0  0  0  0  0  0  0  0
  -41.4730   14.4920  -30.7420 C   0  0  0  0  0  0  0  0  0  0  0  0
  -42.2060   14.8430  -31.8690 C   0  0  0  0  0  0  0  0  0  0  0  0
  -41.5610   15.0080  -33.0930 C   0  0  0  0  0  0  0  0  0  0  0  0
  -40.1850   14.8280  -33.1910 C   0  0  0  0  0  0  0  0  0  0  0  0
  -39.4220   13.9500  -29.7160 O   0  0  0  0  0  0  0  0  0  0  0  0
  -29.4880   15.4640  -22.9150 C   0  0  0  0  0  0  0  0  0  0  0  0
  -28.7240   15.5400  -24.0810 C   0  0  0  0  0  0  0  0  0  0  0  0
  -29.2510   16.1270  -25.2260 C   0  0  0  0  0  0  0  0  0  0  0  0
  -30.5430   16.6380  -25.2040 C   0  0  0  0  0  0  0  0  0  0  0  0
  -31.0300   17.1470  -26.3850 O   0  0  0  0  0  0  0  0  0  0  0  0
  -32.2040   17.9700  -26.5220 C   0  0  0  0  0  0  0  0  0  0  0  0
  -32.5880   18.1290  -27.9980 C   0  0  0  0  0  0  0  0  0  0  0  0
  -31.3030   16.6050  -24.0340 C   0  0  0  0  0  0  0  0  0  0  0  0
  -30.7700   16.0150  -22.8920 C   0  0  0  0  0  0  0  0  0  0  0  0
  -28.6490   16.0100  -31.5350 H   0  0  0  0  0  0  0  0  0  0  0  0
  -26.6180   14.5900  -27.5380 H   0  0  0  0  0  0  0  0  0  0  0  0
  -27.1940   13.1160  -28.3510 H   0  0  0  0  0  0  0  0  0  0  0  0
  -28.3440   14.1620  -27.4850 H   0  0  0  0  0  0  0  0  0  0  0  0
  -27.0270   16.7870  -28.4400 H   0  0  0  0  0  0  0  0  0  0  0  0
  -28.7870   16.5280  -28.3920 H   0  0  0  0  0  0  0  0  0  0  0  0
  -28.0020   17.0320  -29.9080 H   0  0  0  0  0  0  0  0  0  0  0  0
  -25.5590   15.3080  -29.6300 H   0  0  0  0  0  0  0  0  0  0  0  0
  -26.4970   15.4270  -31.1390 H   0  0  0  0  0  0  0  0  0  0  0  0
  -26.1490   13.8310  -30.4300 H   0  0  0  0  0  0  0  0  0  0  0  0
  -32.6590   13.5750  -29.1020 H   0  0  0  0  0  0  0  0  0  0  0  0
  -29.8010   10.9890  -29.1520 H   0  0  0  0  0  0  0  0  0  0  0  0
  -29.7350   11.8690  -30.6980 H   0  0  0  0  0  0  0  0  0  0  0  0
  -29.4610   10.2310  -21.6100 H   0  0  0  0  0  0  0  0  0  0  0  0
  -32.9480   10.8950  -25.0530 H   0  0  0  0  0  0  0  0  0  0  0  0
  -30.9950    4.7180  -21.0750 H   0  0  0  0  0  0  0  0  0  0  0  0
  -28.5310   13.3390  -30.5030 H   0  0  0  0  0  0  0  0  0  0  0  0
  -33.5860   11.3730  -29.1840 H   0  0  0  0  0  0  0  0  0  0  0  0
  -32.2980   10.6960  -28.1580 H   0  0  0  0  0  0  0  0  0  0  0  0
  -31.6440   10.0270  -30.4930 H   0  0  0  0  0  0  0  0  0  0  0  0
  -32.3130   12.6960  -31.0760 H   0  0  0  0  0  0  0  0  0  0  0  0
  -30.4350   12.4410  -26.6540 H   0  0  0  0  0  0  0  0  0  0  0  0
  -32.2780   13.5690  -24.5960 H   0  0  0  0  0  0  0  0  0  0  0  0
  -30.5040   13.7060  -24.5390 H   0  0  0  0  0  0  0  0  0  0  0  0
  -32.8480    8.7820  -23.7990 H   0  0  0  0  0  0  0  0  0  0  0  0
  -30.9930    9.9440  -19.9550 H   0  0  0  0  0  0  0  0  0  0  0  0
  -30.0040    8.8900  -18.9160 H   0  0  0  0  0  0  0  0  0  0  0  0
  -31.7790    8.8560  -18.7850 H   0  0  0  0  0  0  0  0  0  0  0  0
  -29.2710   15.0550  -35.1020 H   0  0  0  0  0  0  0  0  0  0  0  0
  -29.7600   16.7590  -35.2600 H   0  0  0  0  0  0  0  0  0  0  0  0
  -32.2240   16.0950  -34.8070 H   0  0  0  0  0  0  0  0  0  0  0  0
  -31.7350   14.3900  -34.6480 H   0  0  0  0  0  0  0  0  0  0  0  0
  -29.0940   12.8100  -20.7450 H   0  0  0  0  0  0  0  0  0  0  0  0
  -30.6340   13.4290  -21.3880 H   0  0  0  0  0  0  0  0  0  0  0  0
  -27.8700   14.6270  -21.8040 H   0  0  0  0  0  0  0  0  0  0  0  0
  -29.1850   15.2960  -20.8090 H   0  0  0  0  0  0  0  0  0  0  0  0
  -32.2720   16.1820  -28.4500 H   0  0  0  0  0  0  0  0  0  0  0  0
  -35.0350   17.0870  -28.1760 H   0  0  0  0  0  0  0  0  0  0  0  0
  -34.1690   15.8250  -27.2680 H   0  0  0  0  0  0  0  0  0  0  0  0
  -36.0400   15.1210  -28.9090 H   0  0  0  0  0  0  0  0  0  0  0  0
  -34.5080   14.2150  -28.9200 H   0  0  0  0  0  0  0  0  0  0  0  0
  -33.4860   16.0370  -32.0970 H   0  0  0  0  0  0  0  0  0  0  0  0
  -32.8160   14.9200  -30.8850 H   0  0  0  0  0  0  0  0  0  0  0  0
  -31.8550   17.1010  -30.5220 H   0  0  0  0  0  0  0  0  0  0  0  0
  -33.4610   17.8680  -30.5380 H   0  0  0  0  0  0  0  0  0  0  0  0
  -37.4400   15.4930  -30.4880 H   0  0  0  0  0  0  0  0  0  0  0  0
  -33.8150   12.9250  -33.6430 H   0  0  0  0  0  0  0  0  0  0  0  0
  -33.2570   13.8770  -32.2850 H   0  0  0  0  0  0  0  0  0  0  0  0
  -41.9680   14.3600  -29.7910 H   0  0  0  0  0  0  0  0  0  0  0  0
  -43.2740   14.9880  -31.7960 H   0  0  0  0  0  0  0  0  0  0  0  0
  -42.1320   15.2770  -33.9700 H   0  0  0  0  0  0  0  0  0  0  0  0
  -39.6990   14.9570  -34.1470 H   0  0  0  0  0  0  0  0  0  0  0  0
  -39.9680   13.8490  -28.9330 H   0  0  0  0  0  0  0  0  0  0  0  0
  -27.7200   15.1420  -24.0940 H   0  0  0  0  0  0  0  0  0  0  0  0
  -28.6590   16.1850  -26.1280 H   0  0  0  0  0  0  0  0  0  0  0  0
  -32.0030   18.9530  -26.0970 H   0  0  0  0  0  0  0  0  0  0  0  0
  -33.0310   17.5050  -25.9860 H   0  0  0  0  0  0  0  0  0  0  0  0
  -33.4340   18.8150  -28.0520 H   0  0  0  0  0  0  0  0  0  0  0  0
  -31.7350   18.5620  -28.5210 H   0  0  0  0  0  0  0  0  0  0  0  0
  -32.2940   17.0330  -24.0150 H   0  0  0  0  0  0  0  0  0  0  0  0
  -31.3520   15.9830  -21.9830 H   0  0  0  0  0  0  0  0  0  0  0  0
  1 15  1  0  0  0  0
  1 31  1  0  0  0  0
  1 69  1  0  0  0  0
  2 15  1  0  0  0  0
  2 17  1  0  0  0  0
  2 18  2  0  0  0  0
  3 16  1  0  0  0  0
  3 70  1  0  0  0  0
  3 71  1  0  0  0  0
  3 72  1  0  0  0  0
  4 16  1  0  0  0  0
  4 73  1  0  0  0  0
  4 74  1  0  0  0  0
  4 75  1  0  0  0  0
  5 16  1  0  0  0  0
  5 76  1  0  0  0  0
  5 77  1  0  0  0  0
  5 78  1  0  0  0  0
  6  8  1  0  0  0  0
  6 17  1  0  0  0  0
  6 19  1  0  0  0  0
  6 79  1  0  0  0  0
  7 17  1  0  0  0  0
  7 20  1  0  0  0  0
  7 80  1  0  0  0  0
  7 81  1  0  0  0  0
  8 22  2  0  0  0  0
  8 23  1  0  0  0  0
  9 10  2  0  0  0  0
  9 25  1  0  0  0  0
  9 37  1  0  0  0  0
 10 11  1  0  0  0  0
 10 82  1  0  0  0  0
 11 26  2  0  0  0  0
 11 27  1  0  0  0  0
 12 25  2  0  0  0  0
 12 26  1  0  0  0  0
 12 83  1  0  0  0  0
 13 27  2  0  0  0  0
 13 28  1  0  0  0  0
 13 30  1  0  0  0  0
 14 28  2  0  0  0  0
 14 29  1  0  0  0  0
 14 84  1  0  0  0  0
 15 16  1  0  0  0  0
 15 85  1  0  0  0  0
 19 20  1  0  0  0  0
 19 86  1  0  0  0  0
 19 87  1  0  0  0  0
 20 21  1  0  0  0  0
 20 88  1  0  0  0  0
 21 89  1  0  0  0  0
 23 24  1  0  0  0  0
 23 90  1  0  0  0  0
 24 25  1  0  0  0  0
 24 91  1  0  0  0  0
 24 92  1  0  0  0  0
 26 93  1  0  0  0  0
 27 29  1  0  0  0  0
 30 94  1  0  0  0  0
 30 95  1  0  0  0  0
 30 96  1  0  0  0  0
 31 32  1  0  0  0  0
 31 33  2  0  0  0  0
 32 34  1  0  0  0  0
 32 35  1  0  0  0  0
 32 36  1  0  0  0  0
 35 36  1  0  0  0  0
 35 97  1  0  0  0  0
 35 98  1  0  0  0  0
 36 99  1  0  0  0  0
 36100  1  0  0  0  0
 37 38  1  0  0  0  0
 38 39  1  0  0  0  0
 38101  1  0  0  0  0
 38102  1  0  0  0  0
 39 60  1  0  0  0  0
 39103  1  0  0  0  0
 39104  1  0  0  0  0
 40 41  1  0  0  0  0
 40 45  1  0  0  0  0
 40 66  1  0  0  0  0
 40105  1  0  0  0  0
 41 42  1  0  0  0  0
 41106  1  0  0  0  0
 41107  1  0  0  0  0
 42 43  1  0  0  0  0
 42108  1  0  0  0  0
 42109  1  0  0  0  0
 43 44  1  0  0  0  0
 43 46  1  0  0  0  0
 44 45  1  0  0  0  0
 44110  1  0  0  0  0
 44111  1  0  0  0  0
 45112  1  0  0  0  0
 45113  1  0  0  0  0
 46 47  1  0  0  0  0
 46 51  2  0  0  0  0
 47 48  2  0  0  0  0
 47114  1  0  0  0  0
 48 49  1  0  0  0  0
 48 53  1  0  0  0  0
 49 50  2  0  0  0  0
 50 51  1  0  0  0  0
 51 52  1  0  0  0  0
 52115  1  0  0  0  0
 52116  1  0  0  0  0
 53 54  1  0  0  0  0
 53 58  2  0  0  0  0
 54 55  2  0  0  0  0
 54 59  1  0  0  0  0
 55 56  1  0  0  0  0
 55117  1  0  0  0  0
 56 57  2  0  0  0  0
 56118  1  0  0  0  0
 57 58  1  0  0  0  0
 57119  1  0  0  0  0
 58120  1  0  0  0  0
 59121  1  0  0  0  0
 60 61  1  0  0  0  0
 60 68  2  0  0  0  0
 61 62  2  0  0  0  0
 61122  1  0  0  0  0
 62 63  1  0  0  0  0
 62123  1  0  0  0  0
 63 64  1  0  0  0  0
 63 67  2  0  0  0  0
 64 65  1  0  0  0  0
 65 66  1  0  0  0  0
 65124  1  0  0  0  0
 65125  1  0  0  0  0
 66126  1  0  0  0  0
 66127  1  0  0  0  0
 67 68  1  0  0  0  0
 67128  1  0  0  0  0
 68129  1  0  0  0  0
M  CHG  1  40   1
M  END
$$$$
p11
  MOE2018           3D

129136  0  0  1  0  0  0  0  0999 V2000
  -28.8880   15.0900  -31.4420 N   0  0  0  0  0  0  0  0  0  0  0  0
  -29.6860   13.9960  -29.3500 C   0  0  0  0  0  0  0  0  0  0  0  0
  -26.8650   13.9110  -28.3880 C   0  0  0  0  0  0  0  0  0  0  0  0
  -27.2270   16.2180  -29.2680 C   0  0  0  0  0  0  0  0  0  0  0  0
  -25.9950   14.5420  -30.6210 C   0  0  0  0  0  0  0  0  0  0  0  0
  -31.5650   12.6890  -28.5200 C   0  0  3  0  0  0  0  0  0  0  0  0
  -30.0240   11.5710  -29.9430 C   0  0  0  0  0  0  0  0  0  0  0  0
  -31.6630   12.9590  -27.0020 C   0  0  0  0  0  0  0  0  0  0  0  0
  -30.3380   11.3020  -22.7390 C   0  0  0  0  0  0  0  0  0  0  0  0
  -30.4710   10.1040  -22.0430 C   0  0  0  0  0  0  0  0  0  0  0  0
  -31.1180    9.0150  -22.6350 C   0  0  0  0  0  0  0  0  0  0  0  0
  -31.4630   10.3570  -24.6320 C   0  0  0  0  0  0  0  0  0  0  0  0
  -31.7200    7.5320  -20.6410 C   0  0  0  0  0  0  0  0  0  0  0  0
  -31.3060    5.4580  -21.2010 C   0  0  0  0  0  0  0  0  0  0  0  0
  -28.4920   14.2000  -30.3380 C   0  0  3  0  0  0  0  0  0  0  0  0
  -27.1860   14.7250  -29.6580 C   0  0  0  0  0  0  0  0  0  0  0  0
  -30.2270   12.7760  -29.1330 N   0  0  0  0  0  0  0  0  0  0  0  0
  -30.2110   14.9830  -28.8250 O   0  0  0  0  0  0  0  0  0  0  0  0
  -32.1130   11.3100  -28.9010 C   0  0  0  0  0  0  0  0  0  0  0  0
  -31.4350   11.0530  -30.2370 C   0  0  3  0  0  0  0  0  0  0  0  0
  -32.0870   11.8360  -31.2240 O   0  0  0  0  0  0  0  0  0  0  0  0
  -32.6870   13.4670  -26.5510 O   0  0  0  0  0  0  0  0  0  0  0  0
  -30.6190   12.6600  -26.2270 N   0  0  0  0  0  0  0  0  0  0  0  0
  -30.6480   12.7720  -24.7660 C   0  0  0  0  0  0  0  0  0  0  0  0
  -30.8120   11.4440  -24.0450 C   0  0  0  0  0  0  0  0  0  0  0  0
  -31.6100    9.1580  -23.9380 C   0  0  0  0  0  0  0  0  0  0  0  0
  -31.2740    7.7550  -21.9190 C   0  0  0  0  0  0  0  0  0  0  0  0
  -31.7270    6.2340  -20.2440 N   0  0  0  0  0  0  0  0  0  0  0  0
  -30.8710    6.2600  -22.6570 S   0  0  0  0  0  0  0  0  0  0  0  0
  -32.1910    8.6010  -19.6840 C   0  0  0  0  0  0  0  0  0  0  0  0
  -29.8960   14.7860  -32.3030 C   0  0  0  0  0  0  0  0  0  0  0  0
  -30.4470   15.9060  -33.1880 C   0  0  0  0  0  0  0  0  0  0  0  0
  -30.3380   13.6490  -32.2980 O   0  0  0  0  0  0  0  0  0  0  0  0
  -30.6660   17.0770  -32.5130 F   0  0  0  0  0  0  0  0  0  0  0  0
  -30.0130   16.0690  -34.6180 C   0  0  0  0  0  0  0  0  0  0  0  0
  -31.4170   15.6350  -34.3040 C   0  0  0  0  0  0  0  0  0  0  0  0
  -29.7360   12.3860  -22.1420 O   0  0  0  0  0  0  0  0  0  0  0  0
  -29.8830   12.6840  -20.7360 C   0  0  0  0  0  0  0  0  0  0  0  0
  -29.7290   15.3460  -22.5390 O   0  0  0  0  0  0  0  0  0  0  0  0
  -30.3440   15.1400  -21.2510 C   0  0  0  0  0  0  0  0  0  0  0  0
  -29.5440   14.1420  -20.4050 C   0  0  0  0  0  0  0  0  0  0  0  0
  -30.2990   15.9290  -23.6420 C   0  0  0  0  0  0  0  0  0  0  0  0
  -29.5180   15.9830  -24.7890 C   0  0  0  0  0  0  0  0  0  0  0  0
  -30.0490   16.5180  -25.9550 C   0  0  0  0  0  0  0  0  0  0  0  0
  -31.3560   17.0090  -25.9760 C   0  0  0  0  0  0  0  0  0  0  0  0
  -32.1280   16.9650  -24.8110 C   0  0  0  0  0  0  0  0  0  0  0  0
  -31.6020   16.4270  -23.6400 C   0  0  0  0  0  0  0  0  0  0  0  0
  -32.4840   16.5020  -28.1580 N   0  3  0  0  0  0  0  0  0  0  0  0
  -33.8550   15.9750  -27.7000 C   0  0  0  0  0  0  0  0  0  0  0  0
  -34.5870   15.0160  -28.6770 C   0  0  0  0  0  0  0  0  0  0  0  0
  -34.4910   15.4390  -30.1010 N   0  0  0  0  0  0  0  0  0  0  0  0
  -33.1340   15.8130  -30.5640 C   0  0  0  0  0  0  0  0  0  0  0  0
  -32.4770   16.8620  -29.6440 C   0  0  0  0  0  0  0  0  0  0  0  0
  -35.4340   14.8970  -31.0360 C   0  0  0  0  0  0  0  0  0  0  0  0
  -36.7770   15.1340  -30.7890 C   0  0  0  0  0  0  0  0  0  0  0  0
  -37.7290   14.7150  -31.7180 C   0  0  0  0  0  0  0  0  0  0  0  0
  -37.3350   14.0910  -32.8520 N   0  0  0  0  0  0  0  0  0  0  0  0
  -36.0500   13.8320  -33.1020 N   0  0  0  0  0  0  0  0  0  0  0  0
  -35.1120   14.1930  -32.2250 C   0  0  0  0  0  0  0  0  0  0  0  0
  -33.8450   13.7700  -32.5710 N   0  0  0  0  0  0  0  0  0  0  0  0
  -39.1540   14.9730  -31.5290 C   0  0  0  0  0  0  0  0  0  0  0  0
  -39.8250   14.6890  -30.3250 C   0  0  0  0  0  0  0  0  0  0  0  0
  -41.1830   14.9540  -30.1640 C   0  0  0  0  0  0  0  0  0  0  0  0
  -41.9020   15.5090  -31.2160 C   0  0  0  0  0  0  0  0  0  0  0  0
  -41.2640   15.7910  -32.4220 C   0  0  0  0  0  0  0  0  0  0  0  0
  -39.9080   15.5240  -32.5760 C   0  0  0  0  0  0  0  0  0  0  0  0
  -39.1630   14.1270  -29.2720 O   0  0  0  0  0  0  0  0  0  0  0  0
  -31.9160   17.5580  -27.2640 C   0  0  0  0  0  0  0  0  0  0  0  0
  -28.3910   15.9610  -31.5650 H   0  0  0  0  0  0  0  0  0  0  0  0
  -25.9520   14.2940  -27.9320 H   0  0  0  0  0  0  0  0  0  0  0  0
  -26.7260   12.8630  -28.6540 H   0  0  0  0  0  0  0  0  0  0  0  0
  -27.6900   14.0000  -27.6810 H   0  0  0  0  0  0  0  0  0  0  0  0
  -26.2820   16.4980  -28.8030 H   0  0  0  0  0  0  0  0  0  0  0  0
  -28.0420   16.3880  -28.5650 H   0  0  0  0  0  0  0  0  0  0  0  0
  -27.3860   16.8230  -30.1610 H   0  0  0  0  0  0  0  0  0  0  0  0
  -25.0850   14.9080  -30.1470 H   0  0  0  0  0  0  0  0  0  0  0  0
  -26.1790   15.1040  -31.5370 H   0  0  0  0  0  0  0  0  0  0  0  0
  -25.8800   13.4850  -30.8600 H   0  0  0  0  0  0  0  0  0  0  0  0
  -32.1650   13.5100  -28.9120 H   0  0  0  0  0  0  0  0  0  0  0  0
  -29.4500   10.8280  -29.3890 H   0  0  0  0  0  0  0  0  0  0  0  0
  -29.5040   11.8150  -30.8690 H   0  0  0  0  0  0  0  0  0  0  0  0
  -30.0730   10.0150  -21.0430 H   0  0  0  0  0  0  0  0  0  0  0  0
  -31.8560   10.4470  -25.6340 H   0  0  0  0  0  0  0  0  0  0  0  0
  -31.2350    4.3860  -21.0880 H   0  0  0  0  0  0  0  0  0  0  0  0
  -28.2510   13.2100  -30.7260 H   0  0  0  0  0  0  0  0  0  0  0  0
  -33.1980   11.3310  -29.0060 H   0  0  0  0  0  0  0  0  0  0  0  0
  -31.8340   10.5560  -28.1650 H   0  0  0  0  0  0  0  0  0  0  0  0
  -31.4500   10.0260  -30.6010 H   0  0  0  0  0  0  0  0  0  0  0  0
  -32.0840   12.7470  -30.9210 H   0  0  0  0  0  0  0  0  0  0  0  0
  -29.7680   12.3410  -26.6680 H   0  0  0  0  0  0  0  0  0  0  0  0
  -31.4810   13.4170  -24.4890 H   0  0  0  0  0  0  0  0  0  0  0  0
  -29.7130   13.2260  -24.4390 H   0  0  0  0  0  0  0  0  0  0  0  0
  -32.1110    8.3270  -24.4120 H   0  0  0  0  0  0  0  0  0  0  0  0
  -32.1180    9.5770  -20.1650 H   0  0  0  0  0  0  0  0  0  0  0  0
  -31.5670    8.5890  -18.7900 H   0  0  0  0  0  0  0  0  0  0  0  0
  -33.2270    8.4090  -19.4070 H   0  0  0  0  0  0  0  0  0  0  0  0
  -29.3100   15.3620  -35.0580 H   0  0  0  0  0  0  0  0  0  0  0  0
  -29.8280   17.0650  -35.0210 H   0  0  0  0  0  0  0  0  0  0  0  0
  -32.2500   16.3160  -34.4790 H   0  0  0  0  0  0  0  0  0  0  0  0
  -31.7320   14.6130  -34.5160 H   0  0  0  0  0  0  0  0  0  0  0  0
  -29.2170   12.0330  -20.1690 H   0  0  0  0  0  0  0  0  0  0  0  0
  -30.9150   12.4900  -20.4440 H   0  0  0  0  0  0  0  0  0  0  0  0
  -31.3530   14.7530  -21.3970 H   0  0  0  0  0  0  0  0  0  0  0  0
  -30.3930   16.0930  -20.7240 H   0  0  0  0  0  0  0  0  0  0  0  0
  -28.4810   14.3030  -20.5870 H   0  0  0  0  0  0  0  0  0  0  0  0
  -29.7640   14.3210  -19.3530 H   0  0  0  0  0  0  0  0  0  0  0  0
  -28.5040   15.6110  -24.7740 H   0  0  0  0  0  0  0  0  0  0  0  0
  -29.4470   16.5550  -26.8510 H   0  0  0  0  0  0  0  0  0  0  0  0
  -33.1370   17.3500  -24.8200 H   0  0  0  0  0  0  0  0  0  0  0  0
  -32.1970   16.3950  -22.7390 H   0  0  0  0  0  0  0  0  0  0  0  0
  -31.8350   15.7350  -28.0600 H   0  0  0  0  0  0  0  0  0  0  0  0
  -34.5020   16.8360  -27.5330 H   0  0  0  0  0  0  0  0  0  0  0  0
  -33.7090   15.4430  -26.7600 H   0  0  0  0  0  0  0  0  0  0  0  0
  -35.6400   14.9760  -28.3980 H   0  0  0  0  0  0  0  0  0  0  0  0
  -34.1480   14.0230  -28.5810 H   0  0  0  0  0  0  0  0  0  0  0  0
  -33.2070   16.2250  -31.5710 H   0  0  0  0  0  0  0  0  0  0  0  0
  -32.5100   14.9200  -30.5810 H   0  0  0  0  0  0  0  0  0  0  0  0
  -31.4410   16.9880  -29.9580 H   0  0  0  0  0  0  0  0  0  0  0  0
  -33.0110   17.8040  -29.7680 H   0  0  0  0  0  0  0  0  0  0  0  0
  -37.0840   15.6390  -29.8850 H   0  0  0  0  0  0  0  0  0  0  0  0
  -33.7030   13.2410  -33.4200 H   0  0  0  0  0  0  0  0  0  0  0  0
  -33.0590   13.9890  -31.9760 H   0  0  0  0  0  0  0  0  0  0  0  0
  -41.6740   14.7300  -29.2280 H   0  0  0  0  0  0  0  0  0  0  0  0
  -42.9540   15.7210  -31.0990 H   0  0  0  0  0  0  0  0  0  0  0  0
  -41.8250   16.2180  -33.2400 H   0  0  0  0  0  0  0  0  0  0  0  0
  -39.4270   15.7450  -33.5180 H   0  0  0  0  0  0  0  0  0  0  0  0
  -39.7030   13.9600  -28.4960 H   0  0  0  0  0  0  0  0  0  0  0  0
  -31.1160   18.0710  -27.7980 H   0  0  0  0  0  0  0  0  0  0  0  0
  -32.7060   18.2690  -27.0230 H   0  0  0  0  0  0  0  0  0  0  0  0
  1 15  1  0  0  0  0
  1 31  1  0  0  0  0
  1 69  1  0  0  0  0
  2 15  1  0  0  0  0
  2 17  1  0  0  0  0
  2 18  2  0  0  0  0
  3 16  1  0  0  0  0
  3 70  1  0  0  0  0
  3 71  1  0  0  0  0
  3 72  1  0  0  0  0
  4 16  1  0  0  0  0
  4 73  1  0  0  0  0
  4 74  1  0  0  0  0
  4 75  1  0  0  0  0
  5 16  1  0  0  0  0
  5 76  1  0  0  0  0
  5 77  1  0  0  0  0
  5 78  1  0  0  0  0
  6  8  1  0  0  0  0
  6 17  1  0  0  0  0
  6 19  1  0  0  0  0
  6 79  1  0  0  0  0
  7 17  1  0  0  0  0
  7 20  1  0  0  0  0
  7 80  1  0  0  0  0
  7 81  1  0  0  0  0
  8 22  2  0  0  0  0
  8 23  1  0  0  0  0
  9 10  2  0  0  0  0
  9 25  1  0  0  0  0
  9 37  1  0  0  0  0
 10 11  1  0  0  0  0
 10 82  1  0  0  0  0
 11 26  2  0  0  0  0
 11 27  1  0  0  0  0
 12 25  2  0  0  0  0
 12 26  1  0  0  0  0
 12 83  1  0  0  0  0
 13 27  2  0  0  0  0
 13 28  1  0  0  0  0
 13 30  1  0  0  0  0
 14 28  2  0  0  0  0
 14 29  1  0  0  0  0
 14 84  1  0  0  0  0
 15 16  1  0  0  0  0
 15 85  1  0  0  0  0
 19 20  1  0  0  0  0
 19 86  1  0  0  0  0
 19 87  1  0  0  0  0
 20 21  1  0  0  0  0
 20 88  1  0  0  0  0
 21 89  1  0  0  0  0
 23 24  1  0  0  0  0
 23 90  1  0  0  0  0
 24 25  1  0  0  0  0
 24 91  1  0  0  0  0
 24 92  1  0  0  0  0
 26 93  1  0  0  0  0
 27 29  1  0  0  0  0
 30 94  1  0  0  0  0
 30 95  1  0  0  0  0
 30 96  1  0  0  0  0
 31 32  1  0  0  0  0
 31 33  2  0  0  0  0
 32 34  1  0  0  0  0
 32 35  1  0  0  0  0
 32 36  1  0  0  0  0
 35 36  1  0  0  0  0
 35 97  1  0  0  0  0
 35 98  1  0  0  0  0
 36 99  1  0  0  0  0
 36100  1  0  0  0  0
 37 38  1  0  0  0  0
 38 41  1  0  0  0  0
 38101  1  0  0  0  0
 38102  1  0  0  0  0
 39 40  1  0  0  0  0
 39 42  1  0  0  0  0
 40 41  1  0  0  0  0
 40103  1  0  0  0  0
 40104  1  0  0  0  0
 41105  1  0  0  0  0
 41106  1  0  0  0  0
 42 43  1  0  0  0  0
 42 47  2  0  0  0  0
 43 44  2  0  0  0  0
 43107  1  0  0  0  0
 44 45  1  0  0  0  0
 44108  1  0  0  0  0
 45 46  2  0  0  0  0
 45 68  1  0  0  0  0
 46 47  1  0  0  0  0
 46109  1  0  0  0  0
 47110  1  0  0  0  0
 48 49  1  0  0  0  0
 48 53  1  0  0  0  0
 48 68  1  0  0  0  0
 48111  1  0  0  0  0
 49 50  1  0  0  0  0
 49112  1  0  0  0  0
 49113  1  0  0  0  0
 50 51  1  0  0  0  0
 50114  1  0  0  0  0
 50115  1  0  0  0  0
 51 52  1  0  0  0  0
 51 54  1  0  0  0  0
 52 53  1  0  0  0  0
 52116  1  0  0  0  0
 52117  1  0  0  0  0
 53118  1  0  0  0  0
 53119  1  0  0  0  0
 54 55  1  0  0  0  0
 54 59  2  0  0  0  0
 55 56  2  0  0  0  0
 55120  1  0  0  0  0
 56 57  1  0  0  0  0
 56 61  1  0  0  0  0
 57 58  2  0  0  0  0
 58 59  1  0  0  0  0
 59 60  1  0  0  0  0
 60121  1  0  0  0  0
 60122  1  0  0  0  0
 61 62  1  0  0  0  0
 61 66  2  0  0  0  0
 62 63  2  0  0  0  0
 62 67  1  0  0  0  0
 63 64  1  0  0  0  0
 63123  1  0  0  0  0
 64 65  2  0  0  0  0
 64124  1  0  0  0  0
 65 66  1  0  0  0  0
 65125  1  0  0  0  0
 66126  1  0  0  0  0
 67127  1  0  0  0  0
 68128  1  0  0  0  0
 68129  1  0  0  0  0
M  CHG  1  48   1
M  END
$$$$
p12
  MOE2018           3D

125132  0  0  1  0  0  0  0  0999 V2000
  -28.9940   15.1290  -31.5840 N   0  0  0  0  0  0  0  0  0  0  0  0
  -29.8940   13.7770  -29.6920 C   0  0  0  0  0  0  0  0  0  0  0  0
  -27.0470   13.3820  -28.7580 C   0  0  0  0  0  0  0  0  0  0  0  0
  -27.4610   15.8210  -29.0620 C   0  0  0  0  0  0  0  0  0  0  0  0
  -26.1670   14.5450  -30.7610 C   0  0  0  0  0  0  0  0  0  0  0  0
  -31.8330   12.4160  -29.1240 C   0  0  3  0  0  0  0  0  0  0  0  0
  -30.2550   11.4590  -30.6250 C   0  0  0  0  0  0  0  0  0  0  0  0
  -31.9470   12.5810  -27.5930 C   0  0  0  0  0  0  0  0  0  0  0  0
  -30.0400   11.6730  -23.2460 C   0  0  0  0  0  0  0  0  0  0  0  0
  -30.0120   10.6580  -22.2980 C   0  0  0  0  0  0  0  0  0  0  0  0
  -30.7060    9.4650  -22.5250 C   0  0  0  0  0  0  0  0  0  0  0  0
  -31.4280   10.3400  -24.6750 C   0  0  0  0  0  0  0  0  0  0  0  0
  -30.9580    8.4510  -20.1930 C   0  0  0  0  0  0  0  0  0  0  0  0
  -30.5220    6.3130  -20.3410 C   0  0  0  0  0  0  0  0  0  0  0  0
  -28.6610   14.0840  -30.6010 C   0  0  3  0  0  0  0  0  0  0  0  0
  -27.3740   14.4690  -29.8020 C   0  0  0  0  0  0  0  0  0  0  0  0
  -30.4760   12.5580  -29.6820 N   0  0  0  0  0  0  0  0  0  0  0  0
  -30.4030   14.6910  -29.0340 O   0  0  0  0  0  0  0  0  0  0  0  0
  -32.3620   11.0780  -29.6440 C   0  0  0  0  0  0  0  0  0  0  0  0
  -31.6590   10.9720  -30.9910 C   0  0  3  0  0  0  0  0  0  0  0  0
  -32.2880   11.8580  -31.9050 O   0  0  0  0  0  0  0  0  0  0  0  0
  -32.9400   13.1300  -27.1170 O   0  0  0  0  0  0  0  0  0  0  0  0
  -30.8910   12.2550  -26.8460 N   0  0  0  0  0  0  0  0  0  0  0  0
  -30.7600   12.6640  -25.4550 C   0  0  0  0  0  0  0  0  0  0  0  0
  -30.7340   11.5290  -24.4510 C   0  0  0  0  0  0  0  0  0  0  0  0
  -31.4100    9.3210  -23.7280 C   0  0  0  0  0  0  0  0  0  0  0  0
  -30.6980    8.3930  -21.5380 C   0  0  0  0  0  0  0  0  0  0  0  0
  -30.8480    7.2740  -19.5260 N   0  0  0  0  0  0  0  0  0  0  0  0
  -30.3240    6.7800  -21.9840 S   0  0  0  0  0  0  0  0  0  0  0  0
  -31.3460    9.7000  -19.4380 C   0  0  0  0  0  0  0  0  0  0  0  0
  -29.9980   14.9910  -32.4920 C   0  0  0  0  0  0  0  0  0  0  0  0
  -30.4370   16.2310  -33.2740 C   0  0  0  0  0  0  0  0  0  0  0  0
  -30.5290   13.8980  -32.6080 O   0  0  0  0  0  0  0  0  0  0  0  0
  -30.5290   17.3590  -32.5050 F   0  0  0  0  0  0  0  0  0  0  0  0
  -30.0100   16.4620  -34.6970 C   0  0  0  0  0  0  0  0  0  0  0  0
  -31.4470   16.1510  -34.3850 C   0  0  0  0  0  0  0  0  0  0  0  0
  -29.3590   12.8330  -22.9670 O   0  0  0  0  0  0  0  0  0  0  0  0
  -30.0400   13.9220  -22.2880 C   0  0  0  0  0  0  0  0  0  0  0  0
  -30.6450   14.9140  -23.2640 C   0  0  0  0  0  0  0  0  0  0  0  0
  -29.8200   15.6460  -24.1160 C   0  0  0  0  0  0  0  0  0  0  0  0
  -30.3670   16.5360  -25.0350 C   0  0  0  0  0  0  0  0  0  0  0  0
  -31.7480   16.7080  -25.1140 C   0  0  0  0  0  0  0  0  0  0  0  0
  -32.5740   15.9760  -24.2610 C   0  0  0  0  0  0  0  0  0  0  0  0
  -32.0260   15.0870  -23.3400 C   0  0  0  0  0  0  0  0  0  0  0  0
  -32.5030   16.4440  -28.3650 N   0  3  0  0  0  0  0  0  0  0  0  0
  -33.9130   15.9560  -27.9550 C   0  0  0  0  0  0  0  0  0  0  0  0
  -34.6720   15.0560  -28.9660 C   0  0  0  0  0  0  0  0  0  0  0  0
  -34.5550   15.5180  -30.3720 N   0  0  0  0  0  0  0  0  0  0  0  0
  -33.1660   15.7720  -30.8110 C   0  0  0  0  0  0  0  0  0  0  0  0
  -32.4250   16.7470  -29.8720 C   0  0  0  0  0  0  0  0  0  0  0  0
  -35.5440   15.0830  -31.3180 C   0  0  0  0  0  0  0  0  0  0  0  0
  -36.8690   15.3720  -31.0230 C   0  0  0  0  0  0  0  0  0  0  0  0
  -37.8650   15.0460  -31.9420 C   0  0  0  0  0  0  0  0  0  0  0  0
  -37.5320   14.4680  -33.1200 N   0  0  0  0  0  0  0  0  0  0  0  0
  -36.2680   14.1680  -33.4220 N   0  0  0  0  0  0  0  0  0  0  0  0
  -35.2890   14.4340  -32.5550 C   0  0  0  0  0  0  0  0  0  0  0  0
  -34.0530   13.9780  -32.9690 N   0  0  0  0  0  0  0  0  0  0  0  0
  -39.2730   15.3500  -31.6920 C   0  0  0  0  0  0  0  0  0  0  0  0
  -39.9140   15.0380  -30.4780 C   0  0  0  0  0  0  0  0  0  0  0  0
  -41.2540   15.3460  -30.2570 C   0  0  0  0  0  0  0  0  0  0  0  0
  -41.9870   15.9740  -31.2570 C   0  0  0  0  0  0  0  0  0  0  0  0
  -41.3800   16.2850  -32.4720 C   0  0  0  0  0  0  0  0  0  0  0  0
  -40.0410   15.9750  -32.6860 C   0  0  0  0  0  0  0  0  0  0  0  0
  -39.2400   14.4050  -29.4730 O   0  0  0  0  0  0  0  0  0  0  0  0
  -31.9420   17.5940  -27.5410 C   0  0  0  0  0  0  0  0  0  0  0  0
  -32.3420   17.7320  -26.0600 C   0  0  0  0  0  0  0  0  0  0  0  0
  -28.4550   15.9830  -31.5840 H   0  0  0  0  0  0  0  0  0  0  0  0
  -26.1480   13.6640  -28.2090 H   0  0  0  0  0  0  0  0  0  0  0  0
  -26.8810   12.4310  -29.2640 H   0  0  0  0  0  0  0  0  0  0  0  0
  -27.8810   13.2830  -28.0630 H   0  0  0  0  0  0  0  0  0  0  0  0
  -26.5250   16.0080  -28.5350 H   0  0  0  0  0  0  0  0  0  0  0  0
  -28.2820   15.7910  -28.3460 H   0  0  0  0  0  0  0  0  0  0  0  0
  -27.6370   16.6190  -29.7830 H   0  0  0  0  0  0  0  0  0  0  0  0
  -25.2730   14.8140  -30.1990 H   0  0  0  0  0  0  0  0  0  0  0  0
  -26.3570   15.2990  -31.5250 H   0  0  0  0  0  0  0  0  0  0  0  0
  -26.0190   13.5760  -31.2370 H   0  0  0  0  0  0  0  0  0  0  0  0
  -32.4530   13.2470  -29.4620 H   0  0  0  0  0  0  0  0  0  0  0  0
  -29.6810   10.6600  -30.1560 H   0  0  0  0  0  0  0  0  0  0  0  0
  -29.7280   11.8130  -31.5110 H   0  0  0  0  0  0  0  0  0  0  0  0
  -29.4530   10.7900  -21.3830 H   0  0  0  0  0  0  0  0  0  0  0  0
  -31.9840   10.2090  -25.5920 H   0  0  0  0  0  0  0  0  0  0  0  0
  -30.3860    5.2940  -20.0090 H   0  0  0  0  0  0  0  0  0  0  0  0
  -28.4260   13.1550  -31.1210 H   0  0  0  0  0  0  0  0  0  0  0  0
  -33.4450   11.0970  -29.7610 H   0  0  0  0  0  0  0  0  0  0  0  0
  -32.0830   10.2570  -28.9840 H   0  0  0  0  0  0  0  0  0  0  0  0
  -31.6710    9.9870  -31.4580 H   0  0  0  0  0  0  0  0  0  0  0  0
  -32.2860   12.7330  -31.5090 H   0  0  0  0  0  0  0  0  0  0  0  0
  -30.1540   11.7030  -27.2610 H   0  0  0  0  0  0  0  0  0  0  0  0
  -31.6030   13.3100  -25.2120 H   0  0  0  0  0  0  0  0  0  0  0  0
  -29.8310   13.2250  -25.3540 H   0  0  0  0  0  0  0  0  0  0  0  0
  -31.9470    8.4050  -23.9230 H   0  0  0  0  0  0  0  0  0  0  0  0
  -31.3860   10.5440  -20.1270 H   0  0  0  0  0  0  0  0  0  0  0  0
  -30.6070    9.9000  -18.6620 H   0  0  0  0  0  0  0  0  0  0  0  0
  -32.3250    9.5580  -18.9800 H   0  0  0  0  0  0  0  0  0  0  0  0
  -29.3910   15.7240  -35.2070 H   0  0  0  0  0  0  0  0  0  0  0  0
  -29.7280   17.4620  -35.0260 H   0  0  0  0  0  0  0  0  0  0  0  0
  -32.2070   16.9260  -34.4880 H   0  0  0  0  0  0  0  0  0  0  0  0
  -31.8700   15.1870  -34.6690 H   0  0  0  0  0  0  0  0  0  0  0  0
  -29.3230   14.4450  -21.6550 H   0  0  0  0  0  0  0  0  0  0  0  0
  -30.8360   13.5070  -21.6700 H   0  0  0  0  0  0  0  0  0  0  0  0
  -28.7490   15.5220  -24.0630 H   0  0  0  0  0  0  0  0  0  0  0  0
  -29.7180   17.0970  -25.6910 H   0  0  0  0  0  0  0  0  0  0  0  0
  -33.6460   16.1000  -24.3150 H   0  0  0  0  0  0  0  0  0  0  0  0
  -32.6740   14.5290  -22.6810 H   0  0  0  0  0  0  0  0  0  0  0  0
  -31.8990   15.6620  -28.1530 H   0  0  0  0  0  0  0  0  0  0  0  0
  -34.5270   16.8390  -27.7760 H   0  0  0  0  0  0  0  0  0  0  0  0
  -33.8090   15.3920  -27.0280 H   0  0  0  0  0  0  0  0  0  0  0  0
  -35.7270   15.0440  -28.6930 H   0  0  0  0  0  0  0  0  0  0  0  0
  -34.2680   14.0460  -28.9000 H   0  0  0  0  0  0  0  0  0  0  0  0
  -33.1880   16.1990  -31.8140 H   0  0  0  0  0  0  0  0  0  0  0  0
  -32.6260   14.8250  -30.8310 H   0  0  0  0  0  0  0  0  0  0  0  0
  -31.3730   16.7440  -30.1560 H   0  0  0  0  0  0  0  0  0  0  0  0
  -32.8420   17.7410  -30.0320 H   0  0  0  0  0  0  0  0  0  0  0  0
  -37.1270   15.8460  -30.0880 H   0  0  0  0  0  0  0  0  0  0  0  0
  -33.9620   13.4970  -33.8520 H   0  0  0  0  0  0  0  0  0  0  0  0
  -33.2400   14.1260  -32.3880 H   0  0  0  0  0  0  0  0  0  0  0  0
  -41.7200   15.0990  -29.3150 H   0  0  0  0  0  0  0  0  0  0  0  0
  -43.0260   16.2210  -31.0930 H   0  0  0  0  0  0  0  0  0  0  0  0
  -41.9510   16.7690  -33.2510 H   0  0  0  0  0  0  0  0  0  0  0  0
  -39.5850   16.2200  -33.6340 H   0  0  0  0  0  0  0  0  0  0  0  0
  -39.7600   14.2240  -28.6870 H   0  0  0  0  0  0  0  0  0  0  0  0
  -32.2430   18.5160  -28.0380 H   0  0  0  0  0  0  0  0  0  0  0  0
  -30.8560   17.5040  -27.5690 H   0  0  0  0  0  0  0  0  0  0  0  0
  -32.0300   18.7200  -25.7210 H   0  0  0  0  0  0  0  0  0  0  0  0
  -33.4270   17.6530  -25.9990 H   0  0  0  0  0  0  0  0  0  0  0  0
  1 15  1  0  0  0  0
  1 31  1  0  0  0  0
  1 67  1  0  0  0  0
  2 15  1  0  0  0  0
  2 17  1  0  0  0  0
  2 18  2  0  0  0  0
  3 16  1  0  0  0  0
  3 68  1  0  0  0  0
  3 69  1  0  0  0  0
  3 70  1  0  0  0  0
  4 16  1  0  0  0  0
  4 71  1  0  0  0  0
  4 72  1  0  0  0  0
  4 73  1  0  0  0  0
  5 16  1  0  0  0  0
  5 74  1  0  0  0  0
  5 75  1  0  0  0  0
  5 76  1  0  0  0  0
  6  8  1  0  0  0  0
  6 17  1  0  0  0  0
  6 19  1  0  0  0  0
  6 77  1  0  0  0  0
  7 17  1  0  0  0  0
  7 20  1  0  0  0  0
  7 78  1  0  0  0  0
  7 79  1  0  0  0  0
  8 22  2  0  0  0  0
  8 23  1  0  0  0  0
  9 10  2  0  0  0  0
  9 25  1  0  0  0  0
  9 37  1  0  0  0  0
 10 11  1  0  0  0  0
 10 80  1  0  0  0  0
 11 26  2  0  0  0  0
 11 27  1  0  0  0  0
 12 25  2  0  0  0  0
 12 26  1  0  0  0  0
 12 81  1  0  0  0  0
 13 27  2  0  0  0  0
 13 28  1  0  0  0  0
 13 30  1  0  0  0  0
 14 28  2  0  0  0  0
 14 29  1  0  0  0  0
 14 82  1  0  0  0  0
 15 16  1  0  0  0  0
 15 83  1  0  0  0  0
 19 20  1  0  0  0  0
 19 84  1  0  0  0  0
 19 85  1  0  0  0  0
 20 21  1  0  0  0  0
 20 86  1  0  0  0  0
 21 87  1  0  0  0  0
 23 24  1  0  0  0  0
 23 88  1  0  0  0  0
 24 25  1  0  0  0  0
 24 89  1  0  0  0  0
 24 90  1  0  0  0  0
 26 91  1  0  0  0  0
 27 29  1  0  0  0  0
 30 92  1  0  0  0  0
 30 93  1  0  0  0  0
 30 94  1  0  0  0  0
 31 32  1  0  0  0  0
 31 33  2  0  0  0  0
 32 34  1  0  0  0  0
 32 35  1  0  0  0  0
 32 36  1  0  0  0  0
 35 36  1  0  0  0  0
 35 95  1  0  0  0  0
 35 96  1  0  0  0  0
 36 97  1  0  0  0  0
 36 98  1  0  0  0  0
 37 38  1  0  0  0  0
 38 39  1  0  0  0  0
 38 99  1  0  0  0  0
 38100  1  0  0  0  0
 39 40  1  0  0  0  0
 39 44  2  0  0  0  0
 40 41  2  0  0  0  0
 40101  1  0  0  0  0
 41 42  1  0  0  0  0
 41102  1  0  0  0  0
 42 43  2  0  0  0  0
 42 66  1  0  0  0  0
 43 44  1  0  0  0  0
 43103  1  0  0  0  0
 44104  1  0  0  0  0
 45 46  1  0  0  0  0
 45 50  1  0  0  0  0
 45 65  1  0  0  0  0
 45105  1  0  0  0  0
 46 47  1  0  0  0  0
 46106  1  0  0  0  0
 46107  1  0  0  0  0
 47 48  1  0  0  0  0
 47108  1  0  0  0  0
 47109  1  0  0  0  0
 48 49  1  0  0  0  0
 48 51  1  0  0  0  0
 49 50  1  0  0  0  0
 49110  1  0  0  0  0
 49111  1  0  0  0  0
 50112  1  0  0  0  0
 50113  1  0  0  0  0
 51 52  1  0  0  0  0
 51 56  2  0  0  0  0
 52 53  2  0  0  0  0
 52114  1  0  0  0  0
 53 54  1  0  0  0  0
 53 58  1  0  0  0  0
 54 55  2  0  0  0  0
 55 56  1  0  0  0  0
 56 57  1  0  0  0  0
 57115  1  0  0  0  0
 57116  1  0  0  0  0
 58 59  1  0  0  0  0
 58 63  2  0  0  0  0
 59 60  2  0  0  0  0
 59 64  1  0  0  0  0
 60 61  1  0  0  0  0
 60117  1  0  0  0  0
 61 62  2  0  0  0  0
 61118  1  0  0  0  0
 62 63  1  0  0  0  0
 62119  1  0  0  0  0
 63120  1  0  0  0  0
 64121  1  0  0  0  0
 65 66  1  0  0  0  0
 65122  1  0  0  0  0
 65123  1  0  0  0  0
 66124  1  0  0  0  0
 66125  1  0  0  0  0
M  CHG  1  45   1
M  END
$$$$
p13
  MOE2018           3D

125132  0  0  1  0  0  0  0  0999 V2000
  -29.5420   14.2830  -29.2080 N   0  0  0  0  0  0  0  0  0  0  0  0
  -31.1470   12.7530  -28.0910 C   0  0  0  0  0  0  0  0  0  0  0  0
  -28.8440   11.6140  -26.5130 C   0  0  0  0  0  0  0  0  0  0  0  0
  -28.8340   14.0910  -26.2790 C   0  0  0  0  0  0  0  0  0  0  0  0
  -27.2140   12.9730  -27.7990 C   0  0  0  0  0  0  0  0  0  0  0  0
  -33.2830   11.6410  -28.3900 C   0  0  3  0  0  0  0  0  0  0  0  0
  -31.4370   10.7670  -29.6180 C   0  0  0  0  0  0  0  0  0  0  0  0
  -33.7980   11.4490  -26.9440 C   0  0  0  0  0  0  0  0  0  0  0  0
  -30.9590   10.6640  -23.4250 C   0  0  0  0  0  0  0  0  0  0  0  0
  -29.8790    9.9380  -22.9220 C   0  0  0  0  0  0  0  0  0  0  0  0
  -29.8780    8.5420  -22.9820 C   0  0  0  0  0  0  0  0  0  0  0  0
  -32.0350    8.6200  -24.0890 C   0  0  0  0  0  0  0  0  0  0  0  0
  -28.1760    7.8470  -21.2090 C   0  0  0  0  0  0  0  0  0  0  0  0
  -26.8950    6.3020  -22.0780 C   0  0  0  0  0  0  0  0  0  0  0  0
  -29.6600   13.0040  -28.4910 C   0  0  3  0  0  0  0  0  0  0  0  0
  -28.6690   12.9380  -27.2870 C   0  0  0  0  0  0  0  0  0  0  0  0
  -31.8170   11.6660  -28.5270 N   0  0  0  0  0  0  0  0  0  0  0  0
  -31.7600   13.6050  -27.4400 O   0  0  0  0  0  0  0  0  0  0  0  0
  -33.7740   10.5830  -29.3820 C   0  0  0  0  0  0  0  0  0  0  0  0
  -32.7040   10.6460  -30.4670 C   0  0  3  0  0  0  0  0  0  0  0  0
  -32.9010   11.8180  -31.2440 O   0  0  0  0  0  0  0  0  0  0  0  0
  -34.8720   11.9350  -26.5940 O   0  0  0  0  0  0  0  0  0  0  0  0
  -32.9680   10.8740  -26.0770 N   0  0  0  0  0  0  0  0  0  0  0  0
  -33.1840   10.7810  -24.6490 C   0  0  0  0  0  0  0  0  0  0  0  0
  -32.0430   10.0120  -24.0220 C   0  0  0  0  0  0  0  0  0  0  0  0
  -30.9680    7.8930  -23.5720 C   0  0  0  0  0  0  0  0  0  0  0  0
  -28.7600    7.7760  -22.4480 C   0  0  0  0  0  0  0  0  0  0  0  0
  -27.1200    7.0180  -21.0140 N   0  0  0  0  0  0  0  0  0  0  0  0
  -27.9600    6.5920  -23.3960 S   0  0  0  0  0  0  0  0  0  0  0  0
  -28.6230    8.7590  -20.0920 C   0  0  0  0  0  0  0  0  0  0  0  0
  -30.2170   14.5260  -30.3640 C   0  0  0  0  0  0  0  0  0  0  0  0
  -30.3110   15.9760  -30.8480 C   0  0  0  0  0  0  0  0  0  0  0  0
  -30.7480   13.5860  -30.9370 O   0  0  0  0  0  0  0  0  0  0  0  0
  -30.6470   16.8630  -29.8610 F   0  0  0  0  0  0  0  0  0  0  0  0
  -29.3840   16.5170  -31.9000 C   0  0  0  0  0  0  0  0  0  0  0  0
  -30.8410   16.3260  -32.2110 C   0  0  0  0  0  0  0  0  0  0  0  0
  -30.9880   12.0470  -23.3490 O   0  0  0  0  0  0  0  0  0  0  0  0
  -29.9670   12.8820  -22.7330 C   0  0  0  0  0  0  0  0  0  0  0  0
  -30.5050   14.2430  -22.2890 C   0  0  0  0  0  0  0  0  0  0  0  0
  -29.9560   16.1430  -23.8600 C   0  0  0  0  0  0  0  0  0  0  0  0
  -30.3020   17.0240  -24.8790 C   0  0  0  0  0  0  0  0  0  0  0  0
  -31.5630   16.9550  -25.4620 C   0  0  0  0  0  0  0  0  0  0  0  0
  -32.4800   15.9940  -25.0340 C   0  0  0  0  0  0  0  0  0  0  0  0
  -32.1170   15.0990  -24.0280 C   0  0  0  0  0  0  0  0  0  0  0  0
  -30.8640   15.1800  -23.4250 C   0  0  0  0  0  0  0  0  0  0  0  0
  -34.0210   15.2480  -26.9290 N   0  3  0  0  0  0  0  0  0  0  0  0
  -35.4810   14.8410  -27.2110 C   0  0  0  0  0  0  0  0  0  0  0  0
  -35.8350   14.4150  -28.6590 C   0  0  0  0  0  0  0  0  0  0  0  0
  -35.1940   15.2680  -29.6900 N   0  0  0  0  0  0  0  0  0  0  0  0
  -33.7380   15.4790  -29.5040 C   0  0  0  0  0  0  0  0  0  0  0  0
  -33.4040   16.0240  -28.0980 C   0  0  0  0  0  0  0  0  0  0  0  0
  -35.7590   15.2710  -31.0080 C   0  0  0  0  0  0  0  0  0  0  0  0
  -37.0810   15.6720  -31.1320 C   0  0  0  0  0  0  0  0  0  0  0  0
  -37.6490   15.7780  -32.4010 C   0  0  0  0  0  0  0  0  0  0  0  0
  -36.9040   15.5040  -33.4980 N   0  0  0  0  0  0  0  0  0  0  0  0
  -35.6370   15.0990  -33.4040 N   0  0  0  0  0  0  0  0  0  0  0  0
  -35.0680   14.9550  -32.2060 C   0  0  0  0  0  0  0  0  0  0  0  0
  -33.7940   14.4280  -32.2600 N   0  0  0  0  0  0  0  0  0  0  0  0
  -39.0270   16.2260  -32.5970 C   0  0  0  0  0  0  0  0  0  0  0  0
  -40.1100   15.6990  -31.8670 C   0  0  0  0  0  0  0  0  0  0  0  0
  -41.4140   16.1450  -32.0680 C   0  0  0  0  0  0  0  0  0  0  0  0
  -41.6620   17.1320  -33.0150 C   0  0  0  0  0  0  0  0  0  0  0  0
  -40.6100   17.6640  -33.7570 C   0  0  0  0  0  0  0  0  0  0  0  0
  -39.3100   17.2150  -33.5510 C   0  0  0  0  0  0  0  0  0  0  0  0
  -39.9180   14.7160  -30.9400 O   0  0  0  0  0  0  0  0  0  0  0  0
  -33.8750   15.9390  -25.6060 C   0  0  0  0  0  0  0  0  0  0  0  0
  -28.9420   15.0020  -28.8310 H   0  0  0  0  0  0  0  0  0  0  0  0
  -28.1450   11.5860  -25.6770 H   0  0  0  0  0  0  0  0  0  0  0  0
  -28.6470   10.7750  -27.1800 H   0  0  0  0  0  0  0  0  0  0  0  0
  -29.8640   11.5460  -26.1350 H   0  0  0  0  0  0  0  0  0  0  0  0
  -28.1100   13.9750  -25.4720 H   0  0  0  0  0  0  0  0  0  0  0  0
  -29.8430   14.0720  -25.8680 H   0  0  0  0  0  0  0  0  0  0  0  0
  -28.6650   15.0420  -26.7840 H   0  0  0  0  0  0  0  0  0  0  0  0
  -26.5300   12.9270  -26.9520 H   0  0  0  0  0  0  0  0  0  0  0  0
  -27.0460   13.8970  -28.3520 H   0  0  0  0  0  0  0  0  0  0  0  0
  -27.0390   12.1200  -28.4550 H   0  0  0  0  0  0  0  0  0  0  0  0
  -33.7020   12.6190  -28.6280 H   0  0  0  0  0  0  0  0  0  0  0  0
  -31.1380    9.7930  -29.2300 H   0  0  0  0  0  0  0  0  0  0  0  0
  -30.6200   11.1920  -30.2020 H   0  0  0  0  0  0  0  0  0  0  0  0
  -29.0400   10.4580  -22.4840 H   0  0  0  0  0  0  0  0  0  0  0  0
  -32.8650    8.1010  -24.5460 H   0  0  0  0  0  0  0  0  0  0  0  0
  -26.0960    5.5770  -22.1290 H   0  0  0  0  0  0  0  0  0  0  0  0
  -29.3690   12.1880  -29.1530 H   0  0  0  0  0  0  0  0  0  0  0  0
  -34.7560   10.8380  -29.7790 H   0  0  0  0  0  0  0  0  0  0  0  0
  -33.8130    9.5960  -28.9210 H   0  0  0  0  0  0  0  0  0  0  0  0
  -32.6920    9.8090  -31.1650 H   0  0  0  0  0  0  0  0  0  0  0  0
  -32.9140   12.5660  -30.6430 H   0  0  0  0  0  0  0  0  0  0  0  0
  -32.1190   10.4700  -26.4450 H   0  0  0  0  0  0  0  0  0  0  0  0
  -34.1230   10.2620  -24.4550 H   0  0  0  0  0  0  0  0  0  0  0  0
  -33.2270   11.7820  -24.2210 H   0  0  0  0  0  0  0  0  0  0  0  0
  -30.9810    6.8140  -23.6270 H   0  0  0  0  0  0  0  0  0  0  0  0
  -29.4780    9.3480  -20.4240 H   0  0  0  0  0  0  0  0  0  0  0  0
  -27.8060    9.4260  -19.8190 H   0  0  0  0  0  0  0  0  0  0  0  0
  -28.9080    8.1610  -19.2270 H   0  0  0  0  0  0  0  0  0  0  0  0
  -28.6390   15.8650  -32.3570 H   0  0  0  0  0  0  0  0  0  0  0  0
  -28.9750   17.5230  -31.8010 H   0  0  0  0  0  0  0  0  0  0  0  0
  -31.4890   17.1930  -32.3370 H   0  0  0  0  0  0  0  0  0  0  0  0
  -31.1540   15.5360  -32.8940 H   0  0  0  0  0  0  0  0  0  0  0  0
  -29.1660   13.0420  -23.4550 H   0  0  0  0  0  0  0  0  0  0  0  0
  -29.5710   12.3620  -21.8600 H   0  0  0  0  0  0  0  0  0  0  0  0
  -29.7440   14.7270  -21.6770 H   0  0  0  0  0  0  0  0  0  0  0  0
  -31.4000   14.0760  -21.6900 H   0  0  0  0  0  0  0  0  0  0  0  0
  -28.9790   16.2060  -23.4040 H   0  0  0  0  0  0  0  0  0  0  0  0
  -29.5910   17.7630  -25.2180 H   0  0  0  0  0  0  0  0  0  0  0  0
  -31.8330   17.6460  -26.2470 H   0  0  0  0  0  0  0  0  0  0  0  0
  -32.8140   14.3360  -23.7140 H   0  0  0  0  0  0  0  0  0  0  0  0
  -33.4810   14.3980  -26.8520 H   0  0  0  0  0  0  0  0  0  0  0  0
  -36.1130   15.6920  -26.9570 H   0  0  0  0  0  0  0  0  0  0  0  0
  -35.7190   14.0030  -26.5560 H   0  0  0  0  0  0  0  0  0  0  0  0
  -36.9160   14.4740  -28.7830 H   0  0  0  0  0  0  0  0  0  0  0  0
  -35.5080   13.3860  -28.8080 H   0  0  0  0  0  0  0  0  0  0  0  0
  -33.3880   16.1930  -30.2500 H   0  0  0  0  0  0  0  0  0  0  0  0
  -33.2250   14.5280  -29.6430 H   0  0  0  0  0  0  0  0  0  0  0  0
  -32.3210   16.0060  -27.9790 H   0  0  0  0  0  0  0  0  0  0  0  0
  -33.7590   17.0530  -28.0430 H   0  0  0  0  0  0  0  0  0  0  0  0
  -37.6660   15.9000  -30.2530 H   0  0  0  0  0  0  0  0  0  0  0  0
  -33.3820   14.1920  -33.1520 H   0  0  0  0  0  0  0  0  0  0  0  0
  -33.2730   14.2780  -31.4080 H   0  0  0  0  0  0  0  0  0  0  0  0
  -42.2270   15.7270  -31.4920 H   0  0  0  0  0  0  0  0  0  0  0  0
  -42.6700   17.4860  -33.1750 H   0  0  0  0  0  0  0  0  0  0  0  0
  -40.8050   18.4280  -34.4950 H   0  0  0  0  0  0  0  0  0  0  0  0
  -38.5050   17.6350  -34.1350 H   0  0  0  0  0  0  0  0  0  0  0  0
  -40.7150   14.4130  -30.4990 H   0  0  0  0  0  0  0  0  0  0  0  0
  -34.2260   16.9640  -25.7260 H   0  0  0  0  0  0  0  0  0  0  0  0
  -34.5090   15.4190  -24.8880 H   0  0  0  0  0  0  0  0  0  0  0  0
  1 15  1  0  0  0  0
  1 31  1  0  0  0  0
  1 67  1  0  0  0  0
  2 15  1  0  0  0  0
  2 17  1  0  0  0  0
  2 18  2  0  0  0  0
  3 16  1  0  0  0  0
  3 68  1  0  0  0  0
  3 69  1  0  0  0  0
  3 70  1  0  0  0  0
  4 16  1  0  0  0  0
  4 71  1  0  0  0  0
  4 72  1  0  0  0  0
  4 73  1  0  0  0  0
  5 16  1  0  0  0  0
  5 74  1  0  0  0  0
  5 75  1  0  0  0  0
  5 76  1  0  0  0  0
  6  8  1  0  0  0  0
  6 17  1  0  0  0  0
  6 19  1  0  0  0  0
  6 77  1  0  0  0  0
  7 17  1  0  0  0  0
  7 20  1  0  0  0  0
  7 78  1  0  0  0  0
  7 79  1  0  0  0  0
  8 22  2  0  0  0  0
  8 23  1  0  0  0  0
  9 10  2  0  0  0  0
  9 25  1  0  0  0  0
  9 37  1  0  0  0  0
 10 11  1  0  0  0  0
 10 80  1  0  0  0  0
 11 26  2  0  0  0  0
 11 27  1  0  0  0  0
 12 25  2  0  0  0  0
 12 26  1  0  0  0  0
 12 81  1  0  0  0  0
 13 27  2  0  0  0  0
 13 28  1  0  0  0  0
 13 30  1  0  0  0  0
 14 28  2  0  0  0  0
 14 29  1  0  0  0  0
 14 82  1  0  0  0  0
 15 16  1  0  0  0  0
 15 83  1  0  0  0  0
 19 20  1  0  0  0  0
 19 84  1  0  0  0  0
 19 85  1  0  0  0  0
 20 21  1  0  0  0  0
 20 86  1  0  0  0  0
 21 87  1  0  0  0  0
 23 24  1  0  0  0  0
 23 88  1  0  0  0  0
 24 25  1  0  0  0  0
 24 89  1  0  0  0  0
 24 90  1  0  0  0  0
 26 91  1  0  0  0  0
 27 29  1  0  0  0  0
 30 92  1  0  0  0  0
 30 93  1  0  0  0  0
 30 94  1  0  0  0  0
 31 32  1  0  0  0  0
 31 33  2  0  0  0  0
 32 34  1  0  0  0  0
 32 35  1  0  0  0  0
 32 36  1  0  0  0  0
 35 36  1  0  0  0  0
 35 95  1  0  0  0  0
 35 96  1  0  0  0  0
 36 97  1  0  0  0  0
 36 98  1  0  0  0  0
 37 38  1  0  0  0  0
 38 39  1  0  0  0  0
 38 99  1  0  0  0  0
 38100  1  0  0  0  0
 39 45  1  0  0  0  0
 39101  1  0  0  0  0
 39102  1  0  0  0  0
 40 41  1  0  0  0  0
 40 45  2  0  0  0  0
 40103  1  0  0  0  0
 41 42  2  0  0  0  0
 41104  1  0  0  0  0
 42 43  1  0  0  0  0
 42105  1  0  0  0  0
 43 44  2  0  0  0  0
 43 66  1  0  0  0  0
 44 45  1  0  0  0  0
 44106  1  0  0  0  0
 46 47  1  0  0  0  0
 46 51  1  0  0  0  0
 46 66  1  0  0  0  0
 46107  1  0  0  0  0
 47 48  1  0  0  0  0
 47108  1  0  0  0  0
 47109  1  0  0  0  0
 48 49  1  0  0  0  0
 48110  1  0  0  0  0
 48111  1  0  0  0  0
 49 50  1  0  0  0  0
 49 52  1  0  0  0  0
 50 51  1  0  0  0  0
 50112  1  0  0  0  0
 50113  1  0  0  0  0
 51114  1  0  0  0  0
 51115  1  0  0  0  0
 52 53  1  0  0  0  0
 52 57  2  0  0  0  0
 53 54  2  0  0  0  0
 53116  1  0  0  0  0
 54 55  1  0  0  0  0
 54 59  1  0  0  0  0
 55 56  2  0  0  0  0
 56 57  1  0  0  0  0
 57 58  1  0  0  0  0
 58117  1  0  0  0  0
 58118  1  0  0  0  0
 59 60  1  0  0  0  0
 59 64  2  0  0  0  0
 60 61  2  0  0  0  0
 60 65  1  0  0  0  0
 61 62  1  0  0  0  0
 61119  1  0  0  0  0
 62 63  2  0  0  0  0
 62120  1  0  0  0  0
 63 64  1  0  0  0  0
 63121  1  0  0  0  0
 64122  1  0  0  0  0
 65123  1  0  0  0  0
 66124  1  0  0  0  0
 66125  1  0  0  0  0
M  CHG  1  46   1
M  END
$$$$
p14
  MOE2018           3D

128135  0  0  1  0  0  0  0  0999 V2000
  -29.6000   14.5860  -29.2930 N   0  0  0  0  0  0  0  0  0  0  0  0
  -30.9970   12.8820  -28.1340 C   0  0  0  0  0  0  0  0  0  0  0  0
  -28.4780   11.9210  -26.7620 C   0  0  0  0  0  0  0  0  0  0  0  0
  -28.6920   14.4030  -26.4260 C   0  0  0  0  0  0  0  0  0  0  0  0
  -27.0830   13.4810  -28.0730 C   0  0  0  0  0  0  0  0  0  0  0  0
  -33.0550   11.6300  -28.4280 C   0  0  3  0  0  0  0  0  0  0  0  0
  -31.1750   10.9100  -29.6950 C   0  0  0  0  0  0  0  0  0  0  0  0
  -33.5890   11.3730  -26.9980 C   0  0  0  0  0  0  0  0  0  0  0  0
  -31.1680   10.2380  -23.2270 C   0  0  0  0  0  0  0  0  0  0  0  0
  -30.2090    9.4670  -22.5810 C   0  0  0  0  0  0  0  0  0  0  0  0
  -30.2070    8.0770  -22.7330 C   0  0  0  0  0  0  0  0  0  0  0  0
  -32.1440    8.2740  -24.1900 C   0  0  0  0  0  0  0  0  0  0  0  0
  -28.7880    7.2780  -20.7600 C   0  0  0  0  0  0  0  0  0  0  0  0
  -27.4680    5.6910  -21.4870 C   0  0  0  0  0  0  0  0  0  0  0  0
  -29.5630   13.2860  -28.6080 C   0  0  3  0  0  0  0  0  0  0  0  0
  -28.4920   13.2880  -27.4740 C   0  0  0  0  0  0  0  0  0  0  0  0
  -31.5930   11.7510  -28.5700 N   0  0  0  0  0  0  0  0  0  0  0  0
  -31.6440   13.6500  -27.4140 O   0  0  0  0  0  0  0  0  0  0  0  0
  -33.4880   10.5650  -29.4390 C   0  0  0  0  0  0  0  0  0  0  0  0
  -32.4420   10.7270  -30.5340 C   0  0  3  0  0  0  0  0  0  0  0  0
  -32.7380   11.9000  -31.2770 O   0  0  0  0  0  0  0  0  0  0  0  0
  -34.6840   11.8250  -26.6660 O   0  0  0  0  0  0  0  0  0  0  0  0
  -32.8000   10.7510  -26.1230 N   0  0  0  0  0  0  0  0  0  0  0  0
  -33.1810   10.5070  -24.7410 C   0  0  0  0  0  0  0  0  0  0  0  0
  -32.1500    9.6590  -24.0320 C   0  0  0  0  0  0  0  0  0  0  0  0
  -31.1850    7.4930  -23.5490 C   0  0  0  0  0  0  0  0  0  0  0  0
  -29.2040    7.2540  -22.0670 C   0  0  0  0  0  0  0  0  0  0  0  0
  -27.8030    6.3980  -20.4470 N   0  0  0  0  0  0  0  0  0  0  0  0
  -28.3340    6.0520  -22.9270 S   0  0  0  0  0  0  0  0  0  0  0  0
  -29.3390    8.1870  -19.6880 C   0  0  0  0  0  0  0  0  0  0  0  0
  -30.2680   14.7730  -30.4610 C   0  0  0  0  0  0  0  0  0  0  0  0
  -30.4510   16.2100  -30.9550 C   0  0  0  0  0  0  0  0  0  0  0  0
  -30.7140   13.7920  -31.0360 O   0  0  0  0  0  0  0  0  0  0  0  0
  -30.8540   17.0790  -29.9760 F   0  0  0  0  0  0  0  0  0  0  0  0
  -29.5380   16.8070  -31.9910 C   0  0  0  0  0  0  0  0  0  0  0  0
  -30.9740   16.5230  -32.3300 C   0  0  0  0  0  0  0  0  0  0  0  0
  -31.1400   11.5990  -23.0680 O   0  0  0  0  0  0  0  0  0  0  0  0
  -30.0030   12.3340  -23.5740 C   0  0  0  0  0  0  0  0  0  0  0  0
  -29.4290   13.3070  -22.5430 C   0  0  0  0  0  0  0  0  0  0  0  0
  -30.4300   14.3990  -22.1470 C   0  0  0  0  0  0  0  0  0  0  0  0
  -29.9880   16.2860  -23.7630 C   0  0  0  0  0  0  0  0  0  0  0  0
  -30.3790   17.1240  -24.8020 C   0  0  0  0  0  0  0  0  0  0  0  0
  -31.6350   16.9760  -25.3810 C   0  0  0  0  0  0  0  0  0  0  0  0
  -32.5010   15.9790  -24.9310 C   0  0  0  0  0  0  0  0  0  0  0  0
  -32.0930   15.1300  -23.9020 C   0  0  0  0  0  0  0  0  0  0  0  0
  -30.8460   15.2910  -23.3020 C   0  0  0  0  0  0  0  0  0  0  0  0
  -34.0010   15.1710  -26.8430 N   0  3  0  0  0  0  0  0  0  0  0  0
  -35.4420   14.7020  -27.1390 C   0  0  0  0  0  0  0  0  0  0  0  0
  -35.7730   14.2980  -28.5980 C   0  0  0  0  0  0  0  0  0  0  0  0
  -35.1830   15.2160  -29.6000 N   0  0  0  0  0  0  0  0  0  0  0  0
  -33.7380   15.4850  -29.4130 C   0  0  0  0  0  0  0  0  0  0  0  0
  -33.4250   16.0060  -27.9930 C   0  0  0  0  0  0  0  0  0  0  0  0
  -35.7520   15.2430  -30.9150 C   0  0  0  0  0  0  0  0  0  0  0  0
  -37.0840   15.6120  -31.0220 C   0  0  0  0  0  0  0  0  0  0  0  0
  -37.6570   15.7490  -32.2860 C   0  0  0  0  0  0  0  0  0  0  0  0
  -36.9090   15.5280  -33.3920 N   0  0  0  0  0  0  0  0  0  0  0  0
  -35.6320   15.1510  -33.3140 N   0  0  0  0  0  0  0  0  0  0  0  0
  -35.0560   14.9820  -32.1230 C   0  0  0  0  0  0  0  0  0  0  0  0
  -33.7700   14.4910  -32.1950 N   0  0  0  0  0  0  0  0  0  0  0  0
  -39.0440   16.1740  -32.4640 C   0  0  0  0  0  0  0  0  0  0  0  0
  -40.1150   15.5950  -31.7580 C   0  0  0  0  0  0  0  0  0  0  0  0
  -41.4280   16.0220  -31.9420 C   0  0  0  0  0  0  0  0  0  0  0  0
  -41.6960   17.0430  -32.8470 C   0  0  0  0  0  0  0  0  0  0  0  0
  -40.6560   17.6280  -33.5640 C   0  0  0  0  0  0  0  0  0  0  0  0
  -39.3460   17.1970  -33.3760 C   0  0  0  0  0  0  0  0  0  0  0  0
  -39.9010   14.5780  -30.8730 O   0  0  0  0  0  0  0  0  0  0  0  0
  -33.8920   15.8360  -25.5000 C   0  0  0  0  0  0  0  0  0  0  0  0
  -29.1110   15.3680  -28.8810 H   0  0  0  0  0  0  0  0  0  0  0  0
  -27.7270   11.9310  -25.9720 H   0  0  0  0  0  0  0  0  0  0  0  0
  -28.2370   11.1390  -27.4820 H   0  0  0  0  0  0  0  0  0  0  0  0
  -29.4590   11.7270  -26.3290 H   0  0  0  0  0  0  0  0  0  0  0  0
  -27.9080   14.3370  -25.6720 H   0  0  0  0  0  0  0  0  0  0  0  0
  -29.6650   14.2840  -25.9500 H   0  0  0  0  0  0  0  0  0  0  0  0
  -28.6440   15.3750  -26.9160 H   0  0  0  0  0  0  0  0  0  0  0  0
  -26.3440   13.4810  -27.2710 H   0  0  0  0  0  0  0  0  0  0  0  0
  -27.0410   14.4310  -28.6050 H   0  0  0  0  0  0  0  0  0  0  0  0
  -26.8680   12.6670  -28.7660 H   0  0  0  0  0  0  0  0  0  0  0  0
  -33.5080   12.5990  -28.6360 H   0  0  0  0  0  0  0  0  0  0  0  0
  -30.8070    9.9480  -29.3400 H   0  0  0  0  0  0  0  0  0  0  0  0
  -30.3970   11.4040  -30.2760 H   0  0  0  0  0  0  0  0  0  0  0  0
  -29.4640    9.9420  -21.9600 H   0  0  0  0  0  0  0  0  0  0  0  0
  -32.8890    7.8030  -24.8140 H   0  0  0  0  0  0  0  0  0  0  0  0
  -26.7010    4.9320  -21.4480 H   0  0  0  0  0  0  0  0  0  0  0  0
  -29.2470   12.5100  -29.3060 H   0  0  0  0  0  0  0  0  0  0  0  0
  -34.4910   10.7620  -29.8170 H   0  0  0  0  0  0  0  0  0  0  0  0
  -33.4540    9.5670  -29.0020 H   0  0  0  0  0  0  0  0  0  0  0  0
  -32.3760    9.9130  -31.2560 H   0  0  0  0  0  0  0  0  0  0  0  0
  -32.8000   12.6290  -30.6560 H   0  0  0  0  0  0  0  0  0  0  0  0
  -31.8930   10.4340  -26.4350 H   0  0  0  0  0  0  0  0  0  0  0  0
  -34.1400    9.9900  -24.7230 H   0  0  0  0  0  0  0  0  0  0  0  0
  -33.2730   11.4620  -24.2240 H   0  0  0  0  0  0  0  0  0  0  0  0
  -31.1950    6.4210  -23.6830 H   0  0  0  0  0  0  0  0  0  0  0  0
  -30.1160    8.8220  -20.1140 H   0  0  0  0  0  0  0  0  0  0  0  0
  -28.5370    8.8100  -19.2930 H   0  0  0  0  0  0  0  0  0  0  0  0
  -29.7620    7.5850  -18.8830 H   0  0  0  0  0  0  0  0  0  0  0  0
  -28.7440   16.2030  -32.4310 H   0  0  0  0  0  0  0  0  0  0  0  0
  -29.1960   17.8370  -31.8870 H   0  0  0  0  0  0  0  0  0  0  0  0
  -31.6730   17.3470  -32.4720 H   0  0  0  0  0  0  0  0  0  0  0  0
  -31.2220   15.7130  -33.0160 H   0  0  0  0  0  0  0  0  0  0  0  0
  -30.3150   12.8990  -24.4520 H   0  0  0  0  0  0  0  0  0  0  0  0
  -29.2250   11.6240  -23.8560 H   0  0  0  0  0  0  0  0  0  0  0  0
  -28.5430   13.7810  -22.9650 H   0  0  0  0  0  0  0  0  0  0  0  0
  -29.1510   12.7470  -21.6500 H   0  0  0  0  0  0  0  0  0  0  0  0
  -29.9740   15.0220  -21.3780 H   0  0  0  0  0  0  0  0  0  0  0  0
  -31.3220   13.9190  -21.7440 H   0  0  0  0  0  0  0  0  0  0  0  0
  -29.0140   16.4080  -23.3120 H   0  0  0  0  0  0  0  0  0  0  0  0
  -29.7070   17.8900  -25.1590 H   0  0  0  0  0  0  0  0  0  0  0  0
  -31.9410   17.6340  -26.1810 H   0  0  0  0  0  0  0  0  0  0  0  0
  -32.7500   14.3410  -23.5670 H   0  0  0  0  0  0  0  0  0  0  0  0
  -33.4170   14.3490  -26.7850 H   0  0  0  0  0  0  0  0  0  0  0  0
  -36.1140   15.5150  -26.8640 H   0  0  0  0  0  0  0  0  0  0  0  0
  -35.6410   13.8370  -26.5070 H   0  0  0  0  0  0  0  0  0  0  0  0
  -36.8560   14.2980  -28.7220 H   0  0  0  0  0  0  0  0  0  0  0  0
  -35.3870   13.2940  -28.7770 H   0  0  0  0  0  0  0  0  0  0  0  0
  -33.4230   16.2330  -30.1400 H   0  0  0  0  0  0  0  0  0  0  0  0
  -33.1840   14.5610  -29.5790 H   0  0  0  0  0  0  0  0  0  0  0  0
  -32.3420   16.0350  -27.8770 H   0  0  0  0  0  0  0  0  0  0  0  0
  -33.8270   17.0160  -27.9090 H   0  0  0  0  0  0  0  0  0  0  0  0
  -37.6730   15.7920  -30.1350 H   0  0  0  0  0  0  0  0  0  0  0  0
  -33.3540   14.2960  -33.0940 H   0  0  0  0  0  0  0  0  0  0  0  0
  -33.2440   14.3270  -31.3490 H   0  0  0  0  0  0  0  0  0  0  0  0
  -42.2320   15.5630  -31.3860 H   0  0  0  0  0  0  0  0  0  0  0  0
  -42.7110   17.3820  -32.9940 H   0  0  0  0  0  0  0  0  0  0  0  0
  -40.8660   18.4190  -34.2690 H   0  0  0  0  0  0  0  0  0  0  0  0
  -38.5490   17.6570  -33.9410 H   0  0  0  0  0  0  0  0  0  0  0  0
  -40.6910   14.2390  -30.4460 H   0  0  0  0  0  0  0  0  0  0  0  0
  -34.3180   16.8350  -25.5900 H   0  0  0  0  0  0  0  0  0  0  0  0
  -34.4810   15.2520  -24.7930 H   0  0  0  0  0  0  0  0  0  0  0  0
  1 15  1  0  0  0  0
  1 31  1  0  0  0  0
  1 68  1  0  0  0  0
  2 15  1  0  0  0  0
  2 17  1  0  0  0  0
  2 18  2  0  0  0  0
  3 16  1  0  0  0  0
  3 69  1  0  0  0  0
  3 70  1  0  0  0  0
  3 71  1  0  0  0  0
  4 16  1  0  0  0  0
  4 72  1  0  0  0  0
  4 73  1  0  0  0  0
  4 74  1  0  0  0  0
  5 16  1  0  0  0  0
  5 75  1  0  0  0  0
  5 76  1  0  0  0  0
  5 77  1  0  0  0  0
  6  8  1  0  0  0  0
  6 17  1  0  0  0  0
  6 19  1  0  0  0  0
  6 78  1  0  0  0  0
  7 17  1  0  0  0  0
  7 20  1  0  0  0  0
  7 79  1  0  0  0  0
  7 80  1  0  0  0  0
  8 22  2  0  0  0  0
  8 23  1  0  0  0  0
  9 10  2  0  0  0  0
  9 25  1  0  0  0  0
  9 37  1  0  0  0  0
 10 11  1  0  0  0  0
 10 81  1  0  0  0  0
 11 26  2  0  0  0  0
 11 27  1  0  0  0  0
 12 25  2  0  0  0  0
 12 26  1  0  0  0  0
 12 82  1  0  0  0  0
 13 27  2  0  0  0  0
 13 28  1  0  0  0  0
 13 30  1  0  0  0  0
 14 28  2  0  0  0  0
 14 29  1  0  0  0  0
 14 83  1  0  0  0  0
 15 16  1  0  0  0  0
 15 84  1  0  0  0  0
 19 20  1  0  0  0  0
 19 85  1  0  0  0  0
 19 86  1  0  0  0  0
 20 21  1  0  0  0  0
 20 87  1  0  0  0  0
 21 88  1  0  0  0  0
 23 24  1  0  0  0  0
 23 89  1  0  0  0  0
 24 25  1  0  0  0  0
 24 90  1  0  0  0  0
 24 91  1  0  0  0  0
 26 92  1  0  0  0  0
 27 29  1  0  0  0  0
 30 93  1  0  0  0  0
 30 94  1  0  0  0  0
 30 95  1  0  0  0  0
 31 32  1  0  0  0  0
 31 33  2  0  0  0  0
 32 34  1  0  0  0  0
 32 35  1  0  0  0  0
 32 36  1  0  0  0  0
 35 36  1  0  0  0  0
 35 96  1  0  0  0  0
 35 97  1  0  0  0  0
 36 98  1  0  0  0  0
 36 99  1  0  0  0  0
 37 38  1  0  0  0  0
 38 39  1  0  0  0  0
 38100  1  0  0  0  0
 38101  1  0  0  0  0
 39 40  1  0  0  0  0
 39102  1  0  0  0  0
 39103  1  0  0  0  0
 40 46  1  0  0  0  0
 40104  1  0  0  0  0
 40105  1  0  0  0  0
 41 42  1  0  0  0  0
 41 46  2  0  0  0  0
 41106  1  0  0  0  0
 42 43  2  0  0  0  0
 42107  1  0  0  0  0
 43 44  1  0  0  0  0
 43108  1  0  0  0  0
 44 45  2  0  0  0  0
 44 67  1  0  0  0  0
 45 46  1  0  0  0  0
 45109  1  0  0  0  0
 47 48  1  0  0  0  0
 47 52  1  0  0  0  0
 47 67  1  0  0  0  0
 47110  1  0  0  0  0
 48 49  1  0  0  0  0
 48111  1  0  0  0  0
 48112  1  0  0  0  0
 49 50  1  0  0  0  0
 49113  1  0  0  0  0
 49114  1  0  0  0  0
 50 51  1  0  0  0  0
 50 53  1  0  0  0  0
 51 52  1  0  0  0  0
 51115  1  0  0  0  0
 51116  1  0  0  0  0
 52117  1  0  0  0  0
 52118  1  0  0  0  0
 53 54  1  0  0  0  0
 53 58  2  0  0  0  0
 54 55  2  0  0  0  0
 54119  1  0  0  0  0
 55 56  1  0  0  0  0
 55 60  1  0  0  0  0
 56 57  2  0  0  0  0
 57 58  1  0  0  0  0
 58 59  1  0  0  0  0
 59120  1  0  0  0  0
 59121  1  0  0  0  0
 60 61  1  0  0  0  0
 60 65  2  0  0  0  0
 61 62  2  0  0  0  0
 61 66  1  0  0  0  0
 62 63  1  0  0  0  0
 62122  1  0  0  0  0
 63 64  2  0  0  0  0
 63123  1  0  0  0  0
 64 65  1  0  0  0  0
 64124  1  0  0  0  0
 65125  1  0  0  0  0
 66126  1  0  0  0  0
 67127  1  0  0  0  0
 67128  1  0  0  0  0
M  CHG  1  47   1
M  END
$$$$
p15
  MOE2018           3D

125132  0  0  1  0  0  0  0  0999 V2000
  -28.7720   14.2520  -29.2430 N   0  0  0  0  0  0  0  0  0  0  0  0
  -30.6570   13.0060  -28.1900 C   0  0  0  0  0  0  0  0  0  0  0  0
  -28.5990   11.4700  -26.5740 C   0  0  0  0  0  0  0  0  0  0  0  0
  -28.3000   13.9140  -26.2410 C   0  0  0  0  0  0  0  0  0  0  0  0
  -26.7480   12.6520  -27.7250 C   0  0  0  0  0  0  0  0  0  0  0  0
  -32.9100   12.1320  -28.4340 C   0  0  3  0  0  0  0  0  0  0  0  0
  -31.1940   11.0790  -29.7090 C   0  0  0  0  0  0  0  0  0  0  0  0
  -33.4250   11.9520  -26.9860 C   0  0  0  0  0  0  0  0  0  0  0  0
  -30.9100   10.7180  -23.2340 C   0  0  0  0  0  0  0  0  0  0  0  0
  -29.8800    9.9320  -22.7230 C   0  0  0  0  0  0  0  0  0  0  0  0
  -29.7750    8.5880  -23.0890 C   0  0  0  0  0  0  0  0  0  0  0  0
  -31.7440    8.8500  -24.4870 C   0  0  0  0  0  0  0  0  0  0  0  0
  -28.3170    7.5500  -21.2660 C   0  0  0  0  0  0  0  0  0  0  0  0
  -26.8150    6.2970  -22.2450 C   0  0  0  0  0  0  0  0  0  0  0  0
  -29.1360   13.0150  -28.5340 C   0  0  3  0  0  0  0  0  0  0  0  0
  -28.2220   12.7850  -27.2880 C   0  0  0  0  0  0  0  0  0  0  0  0
  -31.4540   11.9990  -28.6020 N   0  0  0  0  0  0  0  0  0  0  0  0
  -31.1630   13.9760  -27.6180 O   0  0  0  0  0  0  0  0  0  0  0  0
  -33.5340   11.1590  -29.4380 C   0  0  0  0  0  0  0  0  0  0  0  0
  -32.4800   11.1080  -30.5380 C   0  0  3  0  0  0  0  0  0  0  0  0
  -32.5600   12.2980  -31.3110 O   0  0  0  0  0  0  0  0  0  0  0  0
  -34.4540   12.5200  -26.6240 O   0  0  0  0  0  0  0  0  0  0  0  0
  -32.6660   11.2450  -26.1520 N   0  0  0  0  0  0  0  0  0  0  0  0
  -32.9340   11.0550  -24.7380 C   0  0  0  0  0  0  0  0  0  0  0  0
  -31.8480   10.1930  -24.1260 C   0  0  0  0  0  0  0  0  0  0  0  0
  -30.7200    8.0580  -23.9770 C   0  0  0  0  0  0  0  0  0  0  0  0
  -28.7010    7.7550  -22.5660 C   0  0  0  0  0  0  0  0  0  0  0  0
  -27.2470    6.7340  -21.0960 N   0  0  0  0  0  0  0  0  0  0  0  0
  -27.6860    6.8560  -23.6170 S   0  0  0  0  0  0  0  0  0  0  0  0
  -28.9890    8.1560  -20.0570 C   0  0  0  0  0  0  0  0  0  0  0  0
  -29.4140   14.6660  -30.3700 C   0  0  0  0  0  0  0  0  0  0  0  0
  -29.1210   16.0760  -30.8820 C   0  0  0  0  0  0  0  0  0  0  0  0
  -30.2210   13.9170  -30.9020 O   0  0  0  0  0  0  0  0  0  0  0  0
  -29.5210   17.0620  -30.0260 F   0  0  0  0  0  0  0  0  0  0  0  0
  -27.8740   16.3820  -31.6650 C   0  0  0  0  0  0  0  0  0  0  0  0
  -29.2150   16.4280  -32.3410 C   0  0  0  0  0  0  0  0  0  0  0  0
  -31.0330   12.0380  -22.8700 O   0  0  0  0  0  0  0  0  0  0  0  0
  -30.0640   12.8490  -22.1710 C   0  0  0  0  0  0  0  0  0  0  0  0
  -30.6250   14.2340  -21.8370 C   0  0  0  0  0  0  0  0  0  0  0  0
  -31.1820   14.9430  -23.0580 C   0  0  0  0  0  0  0  0  0  0  0  0
  -30.3420   15.6730  -23.8950 C   0  0  0  0  0  0  0  0  0  0  0  0
  -30.8450   16.2840  -25.0440 C   0  0  0  0  0  0  0  0  0  0  0  0
  -32.2000   16.1840  -25.3730 C   0  0  0  0  0  0  0  0  0  0  0  0
  -33.0510   15.4630  -24.5360 C   0  0  0  0  0  0  0  0  0  0  0  0
  -32.5310   14.8580  -23.4020 C   0  0  0  0  0  0  0  0  0  0  0  0
  -33.3930   14.1650  -22.6160 F   0  0  0  0  0  0  0  0  0  0  0  0
  -33.1830   15.9060  -27.6900 N   0  3  0  0  0  0  0  0  0  0  0  0
  -34.6710   15.5120  -27.5480 C   0  0  0  0  0  0  0  0  0  0  0  0
  -35.3570   14.8570  -28.7760 C   0  0  0  0  0  0  0  0  0  0  0  0
  -34.9560   15.4590  -30.0760 N   0  0  0  0  0  0  0  0  0  0  0  0
  -33.4930   15.6100  -30.2600 C   0  0  0  0  0  0  0  0  0  0  0  0
  -32.8390   16.3910  -29.1020 C   0  0  0  0  0  0  0  0  0  0  0  0
  -35.8140   15.2520  -31.2130 C   0  0  0  0  0  0  0  0  0  0  0  0
  -37.1440   15.6250  -31.0780 C   0  0  0  0  0  0  0  0  0  0  0  0
  -38.0060   15.5110  -32.1680 C   0  0  0  0  0  0  0  0  0  0  0  0
  -37.5390   15.0530  -33.3510 N   0  0  0  0  0  0  0  0  0  0  0  0
  -36.2680   14.6800  -33.5060 N   0  0  0  0  0  0  0  0  0  0  0  0
  -35.4150   14.7520  -32.4820 C   0  0  0  0  0  0  0  0  0  0  0  0
  -34.1590   14.2630  -32.7830 N   0  0  0  0  0  0  0  0  0  0  0  0
  -39.4060   15.9180  -32.0850 C   0  0  0  0  0  0  0  0  0  0  0  0
  -40.2560   15.5020  -31.0430 C   0  0  0  0  0  0  0  0  0  0  0  0
  -41.5860   15.9090  -30.9770 C   0  0  0  0  0  0  0  0  0  0  0  0
  -42.0960   16.7460  -31.9630 C   0  0  0  0  0  0  0  0  0  0  0  0
  -41.2790   17.1660  -33.0100 C   0  0  0  0  0  0  0  0  0  0  0  0
  -39.9510   16.7550  -33.0710 C   0  0  0  0  0  0  0  0  0  0  0  0
  -39.8020   14.6670  -30.0630 O   0  0  0  0  0  0  0  0  0  0  0  0
  -32.7160   16.8520  -26.6240 C   0  0  0  0  0  0  0  0  0  0  0  0
  -28.0170   14.8160  -28.8800 H   0  0  0  0  0  0  0  0  0  0  0  0
  -27.9510   11.3280  -25.7090 H   0  0  0  0  0  0  0  0  0  0  0  0
  -28.4750   10.6340  -27.2620 H   0  0  0  0  0  0  0  0  0  0  0  0
  -29.6370   11.5190  -26.2460 H   0  0  0  0  0  0  0  0  0  0  0  0
  -27.6380   13.6820  -25.4070 H   0  0  0  0  0  0  0  0  0  0  0  0
  -29.3240   14.0030  -25.8780 H   0  0  0  0  0  0  0  0  0  0  0  0
  -27.9930   14.8550  -26.6980 H   0  0  0  0  0  0  0  0  0  0  0  0
  -26.1220   12.4920  -26.8470 H   0  0  0  0  0  0  0  0  0  0  0  0
  -26.4360   13.5650  -28.2330 H   0  0  0  0  0  0  0  0  0  0  0  0
  -26.6450   11.8050  -28.4040 H   0  0  0  0  0  0  0  0  0  0  0  0
  -33.2140   13.1590  -28.6360 H   0  0  0  0  0  0  0  0  0  0  0  0
  -30.9980   10.0730  -29.3370 H   0  0  0  0  0  0  0  0  0  0  0  0
  -30.3450   11.4190  -30.3020 H   0  0  0  0  0  0  0  0  0  0  0  0
  -29.1610   10.3630  -22.0420 H   0  0  0  0  0  0  0  0  0  0  0  0
  -32.4640    8.4210  -25.1680 H   0  0  0  0  0  0  0  0  0  0  0  0
  -25.9690    5.6310  -22.3290 H   0  0  0  0  0  0  0  0  0  0  0  0
  -28.9600   12.1670  -29.1960 H   0  0  0  0  0  0  0  0  0  0  0  0
  -34.4830   11.5380  -29.8180 H   0  0  0  0  0  0  0  0  0  0  0  0
  -33.6870   10.1760  -28.9920 H   0  0  0  0  0  0  0  0  0  0  0  0
  -32.5700   10.2780  -31.2390 H   0  0  0  0  0  0  0  0  0  0  0  0
  -32.4820   13.0410  -30.7080 H   0  0  0  0  0  0  0  0  0  0  0  0
  -31.8390   10.8070  -26.5320 H   0  0  0  0  0  0  0  0  0  0  0  0
  -33.8990   10.5640  -24.6150 H   0  0  0  0  0  0  0  0  0  0  0  0
  -32.9520   12.0240  -24.2390 H   0  0  0  0  0  0  0  0  0  0  0  0
  -30.6530    7.0210  -24.2700 H   0  0  0  0  0  0  0  0  0  0  0  0
  -29.8230    8.7790  -20.3790 H   0  0  0  0  0  0  0  0  0  0  0  0
  -28.2700    8.7660  -19.5100 H   0  0  0  0  0  0  0  0  0  0  0  0
  -29.3580    7.3610  -19.4100 H   0  0  0  0  0  0  0  0  0  0  0  0
  -27.1710   15.5840  -31.9030 H   0  0  0  0  0  0  0  0  0  0  0  0
  -27.3260   17.3060  -31.4780 H   0  0  0  0  0  0  0  0  0  0  0  0
  -29.6400   17.3850  -32.6440 H   0  0  0  0  0  0  0  0  0  0  0  0
  -29.4840   15.6630  -33.0700 H   0  0  0  0  0  0  0  0  0  0  0  0
  -29.1820   12.9670  -22.8000 H   0  0  0  0  0  0  0  0  0  0  0  0
  -29.7850   12.3470  -21.2440 H   0  0  0  0  0  0  0  0  0  0  0  0
  -29.8260   14.8420  -21.4130 H   0  0  0  0  0  0  0  0  0  0  0  0
  -31.4230   14.1210  -21.1040 H   0  0  0  0  0  0  0  0  0  0  0  0
  -29.2940   15.7670  -23.6530 H   0  0  0  0  0  0  0  0  0  0  0  0
  -30.1800   16.8410  -25.6870 H   0  0  0  0  0  0  0  0  0  0  0  0
  -34.1020   15.3770  -24.7680 H   0  0  0  0  0  0  0  0  0  0  0  0
  -32.6590   15.0550  -27.5440 H   0  0  0  0  0  0  0  0  0  0  0  0
  -35.2270   16.4180  -27.3070 H   0  0  0  0  0  0  0  0  0  0  0  0
  -34.7450   14.8090  -26.7180 H   0  0  0  0  0  0  0  0  0  0  0  0
  -36.4360   14.9640  -28.6650 H   0  0  0  0  0  0  0  0  0  0  0  0
  -35.0970   13.7990  -28.7920 H   0  0  0  0  0  0  0  0  0  0  0  0
  -33.3100   16.1450  -31.1920 H   0  0  0  0  0  0  0  0  0  0  0  0
  -33.0420   14.6190  -30.3150 H   0  0  0  0  0  0  0  0  0  0  0  0
  -31.7580   16.3260  -29.2240 H   0  0  0  0  0  0  0  0  0  0  0  0
  -33.1510   17.4320  -29.1830 H   0  0  0  0  0  0  0  0  0  0  0  0
  -37.5090   16.0010  -30.1340 H   0  0  0  0  0  0  0  0  0  0  0  0
  -33.9660   13.9000  -33.7050 H   0  0  0  0  0  0  0  0  0  0  0  0
  -33.4330   14.2690  -32.0810 H   0  0  0  0  0  0  0  0  0  0  0  0
  -42.2170   15.5770  -30.1660 H   0  0  0  0  0  0  0  0  0  0  0  0
  -43.1250   17.0700  -31.9170 H   0  0  0  0  0  0  0  0  0  0  0  0
  -41.6780   17.8130  -33.7770 H   0  0  0  0  0  0  0  0  0  0  0  0
  -39.3300   17.0850  -33.8900 H   0  0  0  0  0  0  0  0  0  0  0  0
  -40.4530   14.4280  -29.4000 H   0  0  0  0  0  0  0  0  0  0  0  0
  -31.9140   17.4630  -27.0390 H   0  0  0  0  0  0  0  0  0  0  0  0
  -33.5540   17.4920  -26.3470 H   0  0  0  0  0  0  0  0  0  0  0  0
  1 15  1  0  0  0  0
  1 31  1  0  0  0  0
  1 68  1  0  0  0  0
  2 15  1  0  0  0  0
  2 17  1  0  0  0  0
  2 18  2  0  0  0  0
  3 16  1  0  0  0  0
  3 69  1  0  0  0  0
  3 70  1  0  0  0  0
  3 71  1  0  0  0  0
  4 16  1  0  0  0  0
  4 72  1  0  0  0  0
  4 73  1  0  0  0  0
  4 74  1  0  0  0  0
  5 16  1  0  0  0  0
  5 75  1  0  0  0  0
  5 76  1  0  0  0  0
  5 77  1  0  0  0  0
  6  8  1  0  0  0  0
  6 17  1  0  0  0  0
  6 19  1  0  0  0  0
  6 78  1  0  0  0  0
  7 17  1  0  0  0  0
  7 20  1  0  0  0  0
  7 79  1  0  0  0  0
  7 80  1  0  0  0  0
  8 22  2  0  0  0  0
  8 23  1  0  0  0  0
  9 10  2  0  0  0  0
  9 25  1  0  0  0  0
  9 37  1  0  0  0  0
 10 11  1  0  0  0  0
 10 81  1  0  0  0  0
 11 26  2  0  0  0  0
 11 27  1  0  0  0  0
 12 25  2  0  0  0  0
 12 26  1  0  0  0  0
 12 82  1  0  0  0  0
 13 27  2  0  0  0  0
 13 28  1  0  0  0  0
 13 30  1  0  0  0  0
 14 28  2  0  0  0  0
 14 29  1  0  0  0  0
 14 83  1  0  0  0  0
 15 16  1  0  0  0  0
 15 84  1  0  0  0  0
 19 20  1  0  0  0  0
 19 85  1  0  0  0  0
 19 86  1  0  0  0  0
 20 21  1  0  0  0  0
 20 87  1  0  0  0  0
 21 88  1  0  0  0  0
 23 24  1  0  0  0  0
 23 89  1  0  0  0  0
 24 25  1  0  0  0  0
 24 90  1  0  0  0  0
 24 91  1  0  0  0  0
 26 92  1  0  0  0  0
 27 29  1  0  0  0  0
 30 93  1  0  0  0  0
 30 94  1  0  0  0  0
 30 95  1  0  0  0  0
 31 32  1  0  0  0  0
 31 33  2  0  0  0  0
 32 34  1  0  0  0  0
 32 35  1  0  0  0  0
 32 36  1  0  0  0  0
 35 36  1  0  0  0  0
 35 96  1  0  0  0  0
 35 97  1  0  0  0  0
 36 98  1  0  0  0  0
 36 99  1  0  0  0  0
 37 38  1  0  0  0  0
 38 39  1  0  0  0  0
 38100  1  0  0  0  0
 38101  1  0  0  0  0
 39 40  1  0  0  0  0
 39102  1  0  0  0  0
 39103  1  0  0  0  0
 40 41  1  0  0  0  0
 40 45  2  0  0  0  0
 41 42  2  0  0  0  0
 41104  1  0  0  0  0
 42 43  1  0  0  0  0
 42105  1  0  0  0  0
 43 44  2  0  0  0  0
 43 67  1  0  0  0  0
 44 45  1  0  0  0  0
 44106  1  0  0  0  0
 45 46  1  0  0  0  0
 47 48  1  0  0  0  0
 47 52  1  0  0  0  0
 47 67  1  0  0  0  0
 47107  1  0  0  0  0
 48 49  1  0  0  0  0
 48108  1  0  0  0  0
 48109  1  0  0  0  0
 49 50  1  0  0  0  0
 49110  1  0  0  0  0
 49111  1  0  0  0  0
 50 51  1  0  0  0  0
 50 53  1  0  0  0  0
 51 52  1  0  0  0  0
 51112  1  0  0  0  0
 51113  1  0  0  0  0
 52114  1  0  0  0  0
 52115  1  0  0  0  0
 53 54  1  0  0  0  0
 53 58  2  0  0  0  0
 54 55  2  0  0  0  0
 54116  1  0  0  0  0
 55 56  1  0  0  0  0
 55 60  1  0  0  0  0
 56 57  2  0  0  0  0
 57 58  1  0  0  0  0
 58 59  1  0  0  0  0
 59117  1  0  0  0  0
 59118  1  0  0  0  0
 60 61  1  0  0  0  0
 60 65  2  0  0  0  0
 61 62  2  0  0  0  0
 61 66  1  0  0  0  0
 62 63  1  0  0  0  0
 62119  1  0  0  0  0
 63 64  2  0  0  0  0
 63120  1  0  0  0  0
 64 65  1  0  0  0  0
 64121  1  0  0  0  0
 65122  1  0  0  0  0
 66123  1  0  0  0  0
 67124  1  0  0  0  0
 67125  1  0  0  0  0
M  CHG  1  47   1
M  END
$$$$
p16
  MOE2018           3D

124131  0  0  1  0  0  0  0  0999 V2000
  -28.7720   14.2520  -29.2430 N   0  0  0  0  0  0  0  0  0  0  0  0
  -30.6570   13.0060  -28.1900 C   0  0  0  0  0  0  0  0  0  0  0  0
  -28.5990   11.4700  -26.5740 C   0  0  0  0  0  0  0  0  0  0  0  0
  -28.3000   13.9140  -26.2410 C   0  0  0  0  0  0  0  0  0  0  0  0
  -26.7480   12.6520  -27.7250 C   0  0  0  0  0  0  0  0  0  0  0  0
  -32.9100   12.1320  -28.4340 C   0  0  3  0  0  0  0  0  0  0  0  0
  -31.1940   11.0790  -29.7090 C   0  0  0  0  0  0  0  0  0  0  0  0
  -33.4250   11.9520  -26.9860 C   0  0  0  0  0  0  0  0  0  0  0  0
  -30.9100   10.7180  -23.2340 C   0  0  0  0  0  0  0  0  0  0  0  0
  -29.8800    9.9320  -22.7230 C   0  0  0  0  0  0  0  0  0  0  0  0
  -29.7750    8.5880  -23.0890 C   0  0  0  0  0  0  0  0  0  0  0  0
  -31.7440    8.8500  -24.4870 C   0  0  0  0  0  0  0  0  0  0  0  0
  -28.3170    7.5500  -21.2660 C   0  0  0  0  0  0  0  0  0  0  0  0
  -26.8150    6.2970  -22.2450 C   0  0  0  0  0  0  0  0  0  0  0  0
  -29.1360   13.0150  -28.5340 C   0  0  3  0  0  0  0  0  0  0  0  0
  -28.2220   12.7850  -27.2880 C   0  0  0  0  0  0  0  0  0  0  0  0
  -31.4540   11.9990  -28.6020 N   0  0  0  0  0  0  0  0  0  0  0  0
  -31.1630   13.9760  -27.6180 O   0  0  0  0  0  0  0  0  0  0  0  0
  -33.5340   11.1590  -29.4380 C   0  0  0  0  0  0  0  0  0  0  0  0
  -32.4800   11.1080  -30.5380 C   0  0  3  0  0  0  0  0  0  0  0  0
  -32.5600   12.2980  -31.3110 O   0  0  0  0  0  0  0  0  0  0  0  0
  -34.4540   12.5200  -26.6240 O   0  0  0  0  0  0  0  0  0  0  0  0
  -32.6660   11.2450  -26.1520 N   0  0  0  0  0  0  0  0  0  0  0  0
  -32.9340   11.0550  -24.7380 C   0  0  0  0  0  0  0  0  0  0  0  0
  -31.8480   10.1930  -24.1260 C   0  0  0  0  0  0  0  0  0  0  0  0
  -30.7200    8.0580  -23.9770 C   0  0  0  0  0  0  0  0  0  0  0  0
  -28.7010    7.7550  -22.5660 C   0  0  0  0  0  0  0  0  0  0  0  0
  -27.2470    6.7340  -21.0960 N   0  0  0  0  0  0  0  0  0  0  0  0
  -27.6860    6.8560  -23.6170 S   0  0  0  0  0  0  0  0  0  0  0  0
  -28.9890    8.1560  -20.0570 C   0  0  0  0  0  0  0  0  0  0  0  0
  -29.4140   14.6660  -30.3700 C   0  0  0  0  0  0  0  0  0  0  0  0
  -29.1210   16.0760  -30.8820 C   0  0  0  0  0  0  0  0  0  0  0  0
  -30.2210   13.9170  -30.9020 O   0  0  0  0  0  0  0  0  0  0  0  0
  -29.5210   17.0620  -30.0260 F   0  0  0  0  0  0  0  0  0  0  0  0
  -27.8740   16.3820  -31.6650 C   0  0  0  0  0  0  0  0  0  0  0  0
  -29.2150   16.4280  -32.3410 C   0  0  0  0  0  0  0  0  0  0  0  0
  -31.0330   12.0380  -22.8700 O   0  0  0  0  0  0  0  0  0  0  0  0
  -30.0640   12.8490  -22.1710 C   0  0  0  0  0  0  0  0  0  0  0  0
  -30.6250   14.2340  -21.8370 C   0  0  0  0  0  0  0  0  0  0  0  0
  -31.1820   14.9430  -23.0580 C   0  0  0  0  0  0  0  0  0  0  0  0
  -30.3420   15.6730  -23.8950 C   0  0  0  0  0  0  0  0  0  0  0  0
  -30.8450   16.2840  -25.0440 C   0  0  0  0  0  0  0  0  0  0  0  0
  -32.2000   16.1840  -25.3730 C   0  0  0  0  0  0  0  0  0  0  0  0
  -33.0510   15.4630  -24.5360 C   0  0  0  0  0  0  0  0  0  0  0  0
  -34.4040   15.3340  -24.8080 F   0  0  0  0  0  0  0  0  0  0  0  0
  -32.5310   14.8580  -23.4020 C   0  0  0  0  0  0  0  0  0  0  0  0
  -33.1830   15.9060  -27.6900 N   0  0  0  0  0  0  0  0  0  0  0  0
  -34.6710   15.5120  -27.5480 C   0  0  0  0  0  0  0  0  0  0  0  0
  -35.3570   14.8570  -28.7760 C   0  0  0  0  0  0  0  0  0  0  0  0
  -34.9560   15.4590  -30.0760 N   0  0  0  0  0  0  0  0  0  0  0  0
  -33.4930   15.6100  -30.2600 C   0  0  0  0  0  0  0  0  0  0  0  0
  -32.8390   16.3910  -29.1020 C   0  0  0  0  0  0  0  0  0  0  0  0
  -35.8140   15.2520  -31.2130 C   0  0  0  0  0  0  0  0  0  0  0  0
  -37.1440   15.6250  -31.0780 C   0  0  0  0  0  0  0  0  0  0  0  0
  -38.0060   15.5110  -32.1680 C   0  0  0  0  0  0  0  0  0  0  0  0
  -37.5390   15.0530  -33.3510 N   0  0  0  0  0  0  0  0  0  0  0  0
  -36.2680   14.6800  -33.5060 N   0  0  0  0  0  0  0  0  0  0  0  0
  -35.4150   14.7520  -32.4820 C   0  0  0  0  0  0  0  0  0  0  0  0
  -34.1590   14.2630  -32.7830 N   0  0  0  0  0  0  0  0  0  0  0  0
  -39.4060   15.9180  -32.0850 C   0  0  0  0  0  0  0  0  0  0  0  0
  -40.2560   15.5020  -31.0430 C   0  0  0  0  0  0  0  0  0  0  0  0
  -41.5860   15.9090  -30.9770 C   0  0  0  0  0  0  0  0  0  0  0  0
  -42.0960   16.7460  -31.9630 C   0  0  0  0  0  0  0  0  0  0  0  0
  -41.2790   17.1660  -33.0100 C   0  0  0  0  0  0  0  0  0  0  0  0
  -39.9510   16.7550  -33.0710 C   0  0  0  0  0  0  0  0  0  0  0  0
  -39.8020   14.6670  -30.0630 O   0  0  0  0  0  0  0  0  0  0  0  0
  -32.7160   16.8520  -26.6240 C   0  0  0  0  0  0  0  0  0  0  0  0
  -28.0170   14.8160  -28.8800 H   0  0  0  0  0  0  0  0  0  0  0  0
  -27.9510   11.3280  -25.7090 H   0  0  0  0  0  0  0  0  0  0  0  0
  -28.4750   10.6340  -27.2620 H   0  0  0  0  0  0  0  0  0  0  0  0
  -29.6370   11.5190  -26.2460 H   0  0  0  0  0  0  0  0  0  0  0  0
  -27.6380   13.6820  -25.4070 H   0  0  0  0  0  0  0  0  0  0  0  0
  -29.3240   14.0030  -25.8780 H   0  0  0  0  0  0  0  0  0  0  0  0
  -27.9930   14.8550  -26.6980 H   0  0  0  0  0  0  0  0  0  0  0  0
  -26.1220   12.4920  -26.8470 H   0  0  0  0  0  0  0  0  0  0  0  0
  -26.4360   13.5650  -28.2330 H   0  0  0  0  0  0  0  0  0  0  0  0
  -26.6450   11.8050  -28.4040 H   0  0  0  0  0  0  0  0  0  0  0  0
  -33.2140   13.1590  -28.6360 H   0  0  0  0  0  0  0  0  0  0  0  0
  -30.9980   10.0730  -29.3370 H   0  0  0  0  0  0  0  0  0  0  0  0
  -30.3450   11.4190  -30.3020 H   0  0  0  0  0  0  0  0  0  0  0  0
  -29.1610   10.3630  -22.0420 H   0  0  0  0  0  0  0  0  0  0  0  0
  -32.4640    8.4210  -25.1680 H   0  0  0  0  0  0  0  0  0  0  0  0
  -25.9690    5.6310  -22.3290 H   0  0  0  0  0  0  0  0  0  0  0  0
  -28.9600   12.1670  -29.1960 H   0  0  0  0  0  0  0  0  0  0  0  0
  -34.4830   11.5380  -29.8180 H   0  0  0  0  0  0  0  0  0  0  0  0
  -33.6870   10.1760  -28.9920 H   0  0  0  0  0  0  0  0  0  0  0  0
  -32.5700   10.2780  -31.2390 H   0  0  0  0  0  0  0  0  0  0  0  0
  -32.4820   13.0410  -30.7080 H   0  0  0  0  0  0  0  0  0  0  0  0
  -31.8390   10.8070  -26.5320 H   0  0  0  0  0  0  0  0  0  0  0  0
  -33.8990   10.5640  -24.6150 H   0  0  0  0  0  0  0  0  0  0  0  0
  -32.9520   12.0240  -24.2390 H   0  0  0  0  0  0  0  0  0  0  0  0
  -30.6530    7.0210  -24.2700 H   0  0  0  0  0  0  0  0  0  0  0  0
  -29.8230    8.7790  -20.3790 H   0  0  0  0  0  0  0  0  0  0  0  0
  -28.2700    8.7660  -19.5100 H   0  0  0  0  0  0  0  0  0  0  0  0
  -29.3580    7.3610  -19.4100 H   0  0  0  0  0  0  0  0  0  0  0  0
  -27.1710   15.5840  -31.9030 H   0  0  0  0  0  0  0  0  0  0  0  0
  -27.3260   17.3060  -31.4780 H   0  0  0  0  0  0  0  0  0  0  0  0
  -29.6400   17.3850  -32.6440 H   0  0  0  0  0  0  0  0  0  0  0  0
  -29.4840   15.6630  -33.0700 H   0  0  0  0  0  0  0  0  0  0  0  0
  -29.1820   12.9670  -22.8000 H   0  0  0  0  0  0  0  0  0  0  0  0
  -29.7850   12.3470  -21.2440 H   0  0  0  0  0  0  0  0  0  0  0  0
  -29.8260   14.8420  -21.4130 H   0  0  0  0  0  0  0  0  0  0  0  0
  -31.4230   14.1210  -21.1040 H   0  0  0  0  0  0  0  0  0  0  0  0
  -29.2940   15.7670  -23.6530 H   0  0  0  0  0  0  0  0  0  0  0  0
  -30.1800   16.8410  -25.6870 H   0  0  0  0  0  0  0  0  0  0  0  0
  -33.1960   14.2990  -22.7600 H   0  0  0  0  0  0  0  0  0  0  0  0
  -35.2270   16.4180  -27.3070 H   0  0  0  0  0  0  0  0  0  0  0  0
  -34.7450   14.8090  -26.7180 H   0  0  0  0  0  0  0  0  0  0  0  0
  -36.4360   14.9640  -28.6650 H   0  0  0  0  0  0  0  0  0  0  0  0
  -35.0970   13.7990  -28.7920 H   0  0  0  0  0  0  0  0  0  0  0  0
  -33.3100   16.1450  -31.1920 H   0  0  0  0  0  0  0  0  0  0  0  0
  -33.0420   14.6190  -30.3150 H   0  0  0  0  0  0  0  0  0  0  0  0
  -31.7580   16.3260  -29.2240 H   0  0  0  0  0  0  0  0  0  0  0  0
  -33.1510   17.4320  -29.1830 H   0  0  0  0  0  0  0  0  0  0  0  0
  -37.5090   16.0010  -30.1340 H   0  0  0  0  0  0  0  0  0  0  0  0
  -33.9660   13.9000  -33.7050 H   0  0  0  0  0  0  0  0  0  0  0  0
  -33.4330   14.2690  -32.0810 H   0  0  0  0  0  0  0  0  0  0  0  0
  -42.2170   15.5770  -30.1660 H   0  0  0  0  0  0  0  0  0  0  0  0
  -43.1250   17.0700  -31.9170 H   0  0  0  0  0  0  0  0  0  0  0  0
  -41.6780   17.8130  -33.7770 H   0  0  0  0  0  0  0  0  0  0  0  0
  -39.3300   17.0850  -33.8900 H   0  0  0  0  0  0  0  0  0  0  0  0
  -40.4530   14.4280  -29.4000 H   0  0  0  0  0  0  0  0  0  0  0  0
  -31.9140   17.4630  -27.0390 H   0  0  0  0  0  0  0  0  0  0  0  0
  -33.5540   17.4920  -26.3470 H   0  0  0  0  0  0  0  0  0  0  0  0
  1 15  1  0  0  0  0
  1 31  1  0  0  0  0
  1 68  1  0  0  0  0
  2 15  1  0  0  0  0
  2 17  1  0  0  0  0
  2 18  2  0  0  0  0
  3 16  1  0  0  0  0
  3 69  1  0  0  0  0
  3 70  1  0  0  0  0
  3 71  1  0  0  0  0
  4 16  1  0  0  0  0
  4 72  1  0  0  0  0
  4 73  1  0  0  0  0
  4 74  1  0  0  0  0
  5 16  1  0  0  0  0
  5 75  1  0  0  0  0
  5 76  1  0  0  0  0
  5 77  1  0  0  0  0
  6  8  1  0  0  0  0
  6 17  1  0  0  0  0
  6 19  1  0  0  0  0
  6 78  1  0  0  0  0
  7 17  1  0  0  0  0
  7 20  1  0  0  0  0
  7 79  1  0  0  0  0
  7 80  1  0  0  0  0
  8 22  2  0  0  0  0
  8 23  1  0  0  0  0
  9 10  2  0  0  0  0
  9 25  1  0  0  0  0
  9 37  1  0  0  0  0
 10 11  1  0  0  0  0
 10 81  1  0  0  0  0
 11 26  2  0  0  0  0
 11 27  1  0  0  0  0
 12 25  2  0  0  0  0
 12 26  1  0  0  0  0
 12 82  1  0  0  0  0
 13 27  2  0  0  0  0
 13 28  1  0  0  0  0
 13 30  1  0  0  0  0
 14 28  2  0  0  0  0
 14 29  1  0  0  0  0
 14 83  1  0  0  0  0
 15 16  1  0  0  0  0
 15 84  1  0  0  0  0
 19 20  1  0  0  0  0
 19 85  1  0  0  0  0
 19 86  1  0  0  0  0
 20 21  1  0  0  0  0
 20 87  1  0  0  0  0
 21 88  1  0  0  0  0
 23 24  1  0  0  0  0
 23 89  1  0  0  0  0
 24 25  1  0  0  0  0
 24 90  1  0  0  0  0
 24 91  1  0  0  0  0
 26 92  1  0  0  0  0
 27 29  1  0  0  0  0
 30 93  1  0  0  0  0
 30 94  1  0  0  0  0
 30 95  1  0  0  0  0
 31 32  1  0  0  0  0
 31 33  2  0  0  0  0
 32 34  1  0  0  0  0
 32 35  1  0  0  0  0
 32 36  1  0  0  0  0
 35 36  1  0  0  0  0
 35 96  1  0  0  0  0
 35 97  1  0  0  0  0
 36 98  1  0  0  0  0
 36 99  1  0  0  0  0
 37 38  1  0  0  0  0
 38 39  1  0  0  0  0
 38100  1  0  0  0  0
 38101  1  0  0  0  0
 39 40  1  0  0  0  0
 39102  1  0  0  0  0
 39103  1  0  0  0  0
 40 41  1  0  0  0  0
 40 46  2  0  0  0  0
 41 42  2  0  0  0  0
 41104  1  0  0  0  0
 42 43  1  0  0  0  0
 42105  1  0  0  0  0
 43 44  2  0  0  0  0
 43 67  1  0  0  0  0
 44 45  1  0  0  0  0
 44 46  1  0  0  0  0
 46106  1  0  0  0  0
 47 48  1  0  0  0  0
 47 52  1  0  0  0  0
 47 67  1  0  0  0  0
 48 49  1  0  0  0  0
 48107  1  0  0  0  0
 48108  1  0  0  0  0
 49 50  1  0  0  0  0
 49109  1  0  0  0  0
 49110  1  0  0  0  0
 50 51  1  0  0  0  0
 50 53  1  0  0  0  0
 51 52  1  0  0  0  0
 51111  1  0  0  0  0
 51112  1  0  0  0  0
 52113  1  0  0  0  0
 52114  1  0  0  0  0
 53 54  1  0  0  0  0
 53 58  2  0  0  0  0
 54 55  2  0  0  0  0
 54115  1  0  0  0  0
 55 56  1  0  0  0  0
 55 60  1  0  0  0  0
 56 57  2  0  0  0  0
 57 58  1  0  0  0  0
 58 59  1  0  0  0  0
 59116  1  0  0  0  0
 59117  1  0  0  0  0
 60 61  1  0  0  0  0
 60 65  2  0  0  0  0
 61 62  2  0  0  0  0
 61 66  1  0  0  0  0
 62 63  1  0  0  0  0
 62118  1  0  0  0  0
 63 64  2  0  0  0  0
 63119  1  0  0  0  0
 64 65  1  0  0  0  0
 64120  1  0  0  0  0
 65121  1  0  0  0  0
 66122  1  0  0  0  0
 67123  1  0  0  0  0
 67124  1  0  0  0  0
M  END
$$$$
p17
  MOE2018           3D

128135  0  0  1  0  0  0  0  0999 V2000
  -28.7720   14.2520  -29.2430 N   0  0  0  0  0  0  0  0  0  0  0  0
  -30.6570   13.0060  -28.1900 C   0  0  0  0  0  0  0  0  0  0  0  0
  -28.5990   11.4700  -26.5740 C   0  0  0  0  0  0  0  0  0  0  0  0
  -28.3000   13.9140  -26.2410 C   0  0  0  0  0  0  0  0  0  0  0  0
  -26.7480   12.6520  -27.7250 C   0  0  0  0  0  0  0  0  0  0  0  0
  -32.9100   12.1320  -28.4340 C   0  0  3  0  0  0  0  0  0  0  0  0
  -31.1940   11.0790  -29.7090 C   0  0  0  0  0  0  0  0  0  0  0  0
  -33.4250   11.9520  -26.9860 C   0  0  0  0  0  0  0  0  0  0  0  0
  -30.9100   10.7180  -23.2340 C   0  0  0  0  0  0  0  0  0  0  0  0
  -29.8800    9.9320  -22.7230 C   0  0  0  0  0  0  0  0  0  0  0  0
  -29.7750    8.5880  -23.0890 C   0  0  0  0  0  0  0  0  0  0  0  0
  -31.7440    8.8500  -24.4870 C   0  0  0  0  0  0  0  0  0  0  0  0
  -28.3170    7.5500  -21.2660 C   0  0  0  0  0  0  0  0  0  0  0  0
  -26.8150    6.2970  -22.2450 C   0  0  0  0  0  0  0  0  0  0  0  0
  -29.1360   13.0150  -28.5340 C   0  0  3  0  0  0  0  0  0  0  0  0
  -28.2220   12.7850  -27.2880 C   0  0  0  0  0  0  0  0  0  0  0  0
  -31.4540   11.9990  -28.6020 N   0  0  0  0  0  0  0  0  0  0  0  0
  -31.1630   13.9760  -27.6180 O   0  0  0  0  0  0  0  0  0  0  0  0
  -33.5340   11.1590  -29.4380 C   0  0  0  0  0  0  0  0  0  0  0  0
  -32.4800   11.1080  -30.5380 C   0  0  3  0  0  0  0  0  0  0  0  0
  -32.5600   12.2980  -31.3110 O   0  0  0  0  0  0  0  0  0  0  0  0
  -34.4540   12.5200  -26.6240 O   0  0  0  0  0  0  0  0  0  0  0  0
  -32.6660   11.2450  -26.1520 N   0  0  0  0  0  0  0  0  0  0  0  0
  -32.9340   11.0550  -24.7380 C   0  0  0  0  0  0  0  0  0  0  0  0
  -31.8480   10.1930  -24.1260 C   0  0  0  0  0  0  0  0  0  0  0  0
  -30.7200    8.0580  -23.9770 C   0  0  0  0  0  0  0  0  0  0  0  0
  -28.7010    7.7550  -22.5660 C   0  0  0  0  0  0  0  0  0  0  0  0
  -27.2470    6.7340  -21.0960 N   0  0  0  0  0  0  0  0  0  0  0  0
  -27.6860    6.8560  -23.6170 S   0  0  0  0  0  0  0  0  0  0  0  0
  -28.9890    8.1560  -20.0570 C   0  0  0  0  0  0  0  0  0  0  0  0
  -29.4140   14.6660  -30.3700 C   0  0  0  0  0  0  0  0  0  0  0  0
  -29.1210   16.0760  -30.8820 C   0  0  0  0  0  0  0  0  0  0  0  0
  -30.2210   13.9170  -30.9020 O   0  0  0  0  0  0  0  0  0  0  0  0
  -29.5210   17.0620  -30.0260 F   0  0  0  0  0  0  0  0  0  0  0  0
  -27.8740   16.3820  -31.6650 C   0  0  0  0  0  0  0  0  0  0  0  0
  -29.2150   16.4280  -32.3410 C   0  0  0  0  0  0  0  0  0  0  0  0
  -31.0330   12.0380  -22.8700 O   0  0  0  0  0  0  0  0  0  0  0  0
  -30.0640   12.8490  -22.1710 C   0  0  0  0  0  0  0  0  0  0  0  0
  -30.6250   14.2340  -21.8370 C   0  0  3  0  0  0  0  0  0  0  0  0
  -31.6520   14.0830  -20.8570 C   0  0  0  0  0  0  0  0  0  0  0  0
  -31.1820   14.9430  -23.0580 C   0  0  0  0  0  0  0  0  0  0  0  0
  -30.3420   15.6730  -23.8950 C   0  0  0  0  0  0  0  0  0  0  0  0
  -30.8450   16.2840  -25.0440 C   0  0  0  0  0  0  0  0  0  0  0  0
  -32.2000   16.1840  -25.3730 C   0  0  0  0  0  0  0  0  0  0  0  0
  -33.0510   15.4630  -24.5360 C   0  0  0  0  0  0  0  0  0  0  0  0
  -32.5310   14.8580  -23.4020 C   0  0  0  0  0  0  0  0  0  0  0  0
  -33.1830   15.9060  -27.6900 N   0  3  0  0  0  0  0  0  0  0  0  0
  -34.6710   15.5120  -27.5480 C   0  0  0  0  0  0  0  0  0  0  0  0
  -35.3570   14.8570  -28.7760 C   0  0  0  0  0  0  0  0  0  0  0  0
  -34.9560   15.4590  -30.0760 N   0  0  0  0  0  0  0  0  0  0  0  0
  -33.4930   15.6100  -30.2600 C   0  0  0  0  0  0  0  0  0  0  0  0
  -32.8390   16.3910  -29.1020 C   0  0  0  0  0  0  0  0  0  0  0  0
  -35.8140   15.2520  -31.2130 C   0  0  0  0  0  0  0  0  0  0  0  0
  -37.1440   15.6250  -31.0780 C   0  0  0  0  0  0  0  0  0  0  0  0
  -38.0060   15.5110  -32.1680 C   0  0  0  0  0  0  0  0  0  0  0  0
  -37.5390   15.0530  -33.3510 N   0  0  0  0  0  0  0  0  0  0  0  0
  -36.2680   14.6800  -33.5060 N   0  0  0  0  0  0  0  0  0  0  0  0
  -35.4150   14.7520  -32.4820 C   0  0  0  0  0  0  0  0  0  0  0  0
  -34.1590   14.2630  -32.7830 N   0  0  0  0  0  0  0  0  0  0  0  0
  -39.4060   15.9180  -32.0850 C   0  0  0  0  0  0  0  0  0  0  0  0
  -40.2560   15.5020  -31.0430 C   0  0  0  0  0  0  0  0  0  0  0  0
  -41.5860   15.9090  -30.9770 C   0  0  0  0  0  0  0  0  0  0  0  0
  -42.0960   16.7460  -31.9630 C   0  0  0  0  0  0  0  0  0  0  0  0
  -41.2790   17.1660  -33.0100 C   0  0  0  0  0  0  0  0  0  0  0  0
  -39.9510   16.7550  -33.0710 C   0  0  0  0  0  0  0  0  0  0  0  0
  -39.8020   14.6670  -30.0630 O   0  0  0  0  0  0  0  0  0  0  0  0
  -32.7160   16.8520  -26.6240 C   0  0  0  0  0  0  0  0  0  0  0  0
  -28.0170   14.8160  -28.8800 H   0  0  0  0  0  0  0  0  0  0  0  0
  -27.9510   11.3280  -25.7090 H   0  0  0  0  0  0  0  0  0  0  0  0
  -28.4750   10.6340  -27.2620 H   0  0  0  0  0  0  0  0  0  0  0  0
  -29.6370   11.5190  -26.2460 H   0  0  0  0  0  0  0  0  0  0  0  0
  -27.6380   13.6820  -25.4070 H   0  0  0  0  0  0  0  0  0  0  0  0
  -29.3240   14.0030  -25.8780 H   0  0  0  0  0  0  0  0  0  0  0  0
  -27.9930   14.8550  -26.6980 H   0  0  0  0  0  0  0  0  0  0  0  0
  -26.1220   12.4920  -26.8470 H   0  0  0  0  0  0  0  0  0  0  0  0
  -26.4360   13.5650  -28.2330 H   0  0  0  0  0  0  0  0  0  0  0  0
  -26.6450   11.8050  -28.4040 H   0  0  0  0  0  0  0  0  0  0  0  0
  -33.2140   13.1590  -28.6360 H   0  0  0  0  0  0  0  0  0  0  0  0
  -30.9980   10.0730  -29.3370 H   0  0  0  0  0  0  0  0  0  0  0  0
  -30.3450   11.4190  -30.3020 H   0  0  0  0  0  0  0  0  0  0  0  0
  -29.1610   10.3630  -22.0420 H   0  0  0  0  0  0  0  0  0  0  0  0
  -32.4640    8.4210  -25.1680 H   0  0  0  0  0  0  0  0  0  0  0  0
  -25.9690    5.6310  -22.3290 H   0  0  0  0  0  0  0  0  0  0  0  0
  -28.9600   12.1670  -29.1960 H   0  0  0  0  0  0  0  0  0  0  0  0
  -34.4830   11.5380  -29.8180 H   0  0  0  0  0  0  0  0  0  0  0  0
  -33.6870   10.1760  -28.9920 H   0  0  0  0  0  0  0  0  0  0  0  0
  -32.5700   10.2780  -31.2390 H   0  0  0  0  0  0  0  0  0  0  0  0
  -32.4820   13.0410  -30.7080 H   0  0  0  0  0  0  0  0  0  0  0  0
  -31.8390   10.8070  -26.5320 H   0  0  0  0  0  0  0  0  0  0  0  0
  -33.8990   10.5640  -24.6150 H   0  0  0  0  0  0  0  0  0  0  0  0
  -32.9520   12.0240  -24.2390 H   0  0  0  0  0  0  0  0  0  0  0  0
  -30.6530    7.0210  -24.2700 H   0  0  0  0  0  0  0  0  0  0  0  0
  -29.8230    8.7790  -20.3790 H   0  0  0  0  0  0  0  0  0  0  0  0
  -28.2700    8.7660  -19.5100 H   0  0  0  0  0  0  0  0  0  0  0  0
  -29.3580    7.3610  -19.4100 H   0  0  0  0  0  0  0  0  0  0  0  0
  -27.1710   15.5840  -31.9030 H   0  0  0  0  0  0  0  0  0  0  0  0
  -27.3260   17.3060  -31.4780 H   0  0  0  0  0  0  0  0  0  0  0  0
  -29.6400   17.3850  -32.6440 H   0  0  0  0  0  0  0  0  0  0  0  0
  -29.4840   15.6630  -33.0700 H   0  0  0  0  0  0  0  0  0  0  0  0
  -29.1820   12.9670  -22.8000 H   0  0  0  0  0  0  0  0  0  0  0  0
  -29.7850   12.3470  -21.2440 H   0  0  0  0  0  0  0  0  0  0  0  0
  -29.8100   14.8490  -21.4560 H   0  0  0  0  0  0  0  0  0  0  0  0
  -32.4530   13.4650  -21.2630 H   0  0  0  0  0  0  0  0  0  0  0  0
  -32.0480   15.0630  -20.5920 H   0  0  0  0  0  0  0  0  0  0  0  0
  -31.2390   13.6050  -19.9690 H   0  0  0  0  0  0  0  0  0  0  0  0
  -29.2940   15.7670  -23.6530 H   0  0  0  0  0  0  0  0  0  0  0  0
  -30.1800   16.8410  -25.6870 H   0  0  0  0  0  0  0  0  0  0  0  0
  -34.1020   15.3770  -24.7680 H   0  0  0  0  0  0  0  0  0  0  0  0
  -33.1960   14.2990  -22.7600 H   0  0  0  0  0  0  0  0  0  0  0  0
  -32.6590   15.0550  -27.5440 H   0  0  0  0  0  0  0  0  0  0  0  0
  -35.2270   16.4180  -27.3070 H   0  0  0  0  0  0  0  0  0  0  0  0
  -34.7450   14.8090  -26.7180 H   0  0  0  0  0  0  0  0  0  0  0  0
  -36.4360   14.9640  -28.6650 H   0  0  0  0  0  0  0  0  0  0  0  0
  -35.0970   13.7990  -28.7920 H   0  0  0  0  0  0  0  0  0  0  0  0
  -33.3100   16.1450  -31.1920 H   0  0  0  0  0  0  0  0  0  0  0  0
  -33.0420   14.6190  -30.3150 H   0  0  0  0  0  0  0  0  0  0  0  0
  -31.7580   16.3260  -29.2240 H   0  0  0  0  0  0  0  0  0  0  0  0
  -33.1510   17.4320  -29.1830 H   0  0  0  0  0  0  0  0  0  0  0  0
  -37.5090   16.0010  -30.1340 H   0  0  0  0  0  0  0  0  0  0  0  0
  -33.9660   13.9000  -33.7050 H   0  0  0  0  0  0  0  0  0  0  0  0
  -33.4330   14.2690  -32.0810 H   0  0  0  0  0  0  0  0  0  0  0  0
  -42.2170   15.5770  -30.1660 H   0  0  0  0  0  0  0  0  0  0  0  0
  -43.1250   17.0700  -31.9170 H   0  0  0  0  0  0  0  0  0  0  0  0
  -41.6780   17.8130  -33.7770 H   0  0  0  0  0  0  0  0  0  0  0  0
  -39.3300   17.0850  -33.8900 H   0  0  0  0  0  0  0  0  0  0  0  0
  -40.4530   14.4280  -29.4000 H   0  0  0  0  0  0  0  0  0  0  0  0
  -31.9140   17.4630  -27.0390 H   0  0  0  0  0  0  0  0  0  0  0  0
  -33.5540   17.4920  -26.3470 H   0  0  0  0  0  0  0  0  0  0  0  0
  1 15  1  0  0  0  0
  1 31  1  0  0  0  0
  1 68  1  0  0  0  0
  2 15  1  0  0  0  0
  2 17  1  0  0  0  0
  2 18  2  0  0  0  0
  3 16  1  0  0  0  0
  3 69  1  0  0  0  0
  3 70  1  0  0  0  0
  3 71  1  0  0  0  0
  4 16  1  0  0  0  0
  4 72  1  0  0  0  0
  4 73  1  0  0  0  0
  4 74  1  0  0  0  0
  5 16  1  0  0  0  0
  5 75  1  0  0  0  0
  5 76  1  0  0  0  0
  5 77  1  0  0  0  0
  6  8  1  0  0  0  0
  6 17  1  0  0  0  0
  6 19  1  0  0  0  0
  6 78  1  0  0  0  0
  7 17  1  0  0  0  0
  7 20  1  0  0  0  0
  7 79  1  0  0  0  0
  7 80  1  0  0  0  0
  8 22  2  0  0  0  0
  8 23  1  0  0  0  0
  9 10  2  0  0  0  0
  9 25  1  0  0  0  0
  9 37  1  0  0  0  0
 10 11  1  0  0  0  0
 10 81  1  0  0  0  0
 11 26  2  0  0  0  0
 11 27  1  0  0  0  0
 12 25  2  0  0  0  0
 12 26  1  0  0  0  0
 12 82  1  0  0  0  0
 13 27  2  0  0  0  0
 13 28  1  0  0  0  0
 13 30  1  0  0  0  0
 14 28  2  0  0  0  0
 14 29  1  0  0  0  0
 14 83  1  0  0  0  0
 15 16  1  0  0  0  0
 15 84  1  0  0  0  0
 19 20  1  0  0  0  0
 19 85  1  0  0  0  0
 19 86  1  0  0  0  0
 20 21  1  0  0  0  0
 20 87  1  0  0  0  0
 21 88  1  0  0  0  0
 23 24  1  0  0  0  0
 23 89  1  0  0  0  0
 24 25  1  0  0  0  0
 24 90  1  0  0  0  0
 24 91  1  0  0  0  0
 26 92  1  0  0  0  0
 27 29  1  0  0  0  0
 30 93  1  0  0  0  0
 30 94  1  0  0  0  0
 30 95  1  0  0  0  0
 31 32  1  0  0  0  0
 31 33  2  0  0  0  0
 32 34  1  0  0  0  0
 32 35  1  0  0  0  0
 32 36  1  0  0  0  0
 35 36  1  0  0  0  0
 35 96  1  0  0  0  0
 35 97  1  0  0  0  0
 36 98  1  0  0  0  0
 36 99  1  0  0  0  0
 37 38  1  0  0  0  0
 38 39  1  0  0  0  0
 38100  1  0  0  0  0
 38101  1  0  0  0  0
 39 40  1  0  0  0  0
 39 41  1  0  0  0  0
 39102  1  0  0  0  0
 40103  1  0  0  0  0
 40104  1  0  0  0  0
 40105  1  0  0  0  0
 41 42  1  0  0  0  0
 41 46  2  0  0  0  0
 42 43  2  0  0  0  0
 42106  1  0  0  0  0
 43 44  1  0  0  0  0
 43107  1  0  0  0  0
 44 45  2  0  0  0  0
 44 67  1  0  0  0  0
 45 46  1  0  0  0  0
 45108  1  0  0  0  0
 46109  1  0  0  0  0
 47 48  1  0  0  0  0
 47 52  1  0  0  0  0
 47 67  1  0  0  0  0
 47110  1  0  0  0  0
 48 49  1  0  0  0  0
 48111  1  0  0  0  0
 48112  1  0  0  0  0
 49 50  1  0  0  0  0
 49113  1  0  0  0  0
 49114  1  0  0  0  0
 50 51  1  0  0  0  0
 50 53  1  0  0  0  0
 51 52  1  0  0  0  0
 51115  1  0  0  0  0
 51116  1  0  0  0  0
 52117  1  0  0  0  0
 52118  1  0  0  0  0
 53 54  1  0  0  0  0
 53 58  2  0  0  0  0
 54 55  2  0  0  0  0
 54119  1  0  0  0  0
 55 56  1  0  0  0  0
 55 60  1  0  0  0  0
 56 57  2  0  0  0  0
 57 58  1  0  0  0  0
 58 59  1  0  0  0  0
 59120  1  0  0  0  0
 59121  1  0  0  0  0
 60 61  1  0  0  0  0
 60 65  2  0  0  0  0
 61 62  2  0  0  0  0
 61 66  1  0  0  0  0
 62 63  1  0  0  0  0
 62122  1  0  0  0  0
 63 64  2  0  0  0  0
 63123  1  0  0  0  0
 64 65  1  0  0  0  0
 64124  1  0  0  0  0
 65125  1  0  0  0  0
 66126  1  0  0  0  0
 67127  1  0  0  0  0
 67128  1  0  0  0  0
M  CHG  1  47   1
M  END
$$$$
p18
  MOE2018           3D

123130  0  0  1  0  0  0  0  0999 V2000
  -28.7720   14.2520  -29.2430 N   0  0  0  0  0  0  0  0  0  0  0  0
  -30.6570   13.0060  -28.1900 C   0  0  0  0  0  0  0  0  0  0  0  0
  -28.5990   11.4700  -26.5740 C   0  0  0  0  0  0  0  0  0  0  0  0
  -28.3000   13.9140  -26.2410 C   0  0  0  0  0  0  0  0  0  0  0  0
  -26.7480   12.6520  -27.7250 C   0  0  0  0  0  0  0  0  0  0  0  0
  -32.9100   12.1320  -28.4340 C   0  0  3  0  0  0  0  0  0  0  0  0
  -31.1940   11.0790  -29.7090 C   0  0  0  0  0  0  0  0  0  0  0  0
  -33.4250   11.9520  -26.9860 C   0  0  0  0  0  0  0  0  0  0  0  0
  -30.9100   10.7180  -23.2340 C   0  0  0  0  0  0  0  0  0  0  0  0
  -29.8800    9.9320  -22.7230 C   0  0  0  0  0  0  0  0  0  0  0  0
  -29.7750    8.5880  -23.0890 C   0  0  0  0  0  0  0  0  0  0  0  0
  -31.7440    8.8500  -24.4870 C   0  0  0  0  0  0  0  0  0  0  0  0
  -28.3170    7.5500  -21.2660 C   0  0  0  0  0  0  0  0  0  0  0  0
  -26.8150    6.2970  -22.2450 C   0  0  0  0  0  0  0  0  0  0  0  0
  -29.1360   13.0150  -28.5340 C   0  0  3  0  0  0  0  0  0  0  0  0
  -28.2220   12.7850  -27.2880 C   0  0  0  0  0  0  0  0  0  0  0  0
  -31.4540   11.9990  -28.6020 N   0  0  0  0  0  0  0  0  0  0  0  0
  -31.1630   13.9760  -27.6180 O   0  0  0  0  0  0  0  0  0  0  0  0
  -33.5340   11.1590  -29.4380 C   0  0  0  0  0  0  0  0  0  0  0  0
  -32.4800   11.1080  -30.5380 C   0  0  3  0  0  0  0  0  0  0  0  0
  -32.5600   12.2980  -31.3110 O   0  0  0  0  0  0  0  0  0  0  0  0
  -34.4540   12.5200  -26.6240 O   0  0  0  0  0  0  0  0  0  0  0  0
  -32.6660   11.2450  -26.1520 N   0  0  0  0  0  0  0  0  0  0  0  0
  -32.9340   11.0550  -24.7380 C   0  0  0  0  0  0  0  0  0  0  0  0
  -31.8480   10.1930  -24.1260 C   0  0  0  0  0  0  0  0  0  0  0  0
  -30.7200    8.0580  -23.9770 C   0  0  0  0  0  0  0  0  0  0  0  0
  -28.7010    7.7550  -22.5660 C   0  0  0  0  0  0  0  0  0  0  0  0
  -27.2470    6.7340  -21.0960 N   0  0  0  0  0  0  0  0  0  0  0  0
  -27.6860    6.8560  -23.6170 S   0  0  0  0  0  0  0  0  0  0  0  0
  -28.9890    8.1560  -20.0570 C   0  0  0  0  0  0  0  0  0  0  0  0
  -29.4140   14.6660  -30.3700 C   0  0  0  0  0  0  0  0  0  0  0  0
  -29.1210   16.0760  -30.8820 C   0  0  0  0  0  0  0  0  0  0  0  0
  -30.2210   13.9170  -30.9020 O   0  0  0  0  0  0  0  0  0  0  0  0
  -29.5210   17.0620  -30.0260 F   0  0  0  0  0  0  0  0  0  0  0  0
  -27.8740   16.3820  -31.6650 C   0  0  0  0  0  0  0  0  0  0  0  0
  -29.2150   16.4280  -32.3410 C   0  0  0  0  0  0  0  0  0  0  0  0
  -31.0330   12.0380  -22.8700 O   0  0  0  0  0  0  0  0  0  0  0  0
  -30.0640   12.8490  -22.1710 C   0  0  0  0  0  0  0  0  0  0  0  0
  -30.6250   14.2340  -21.8370 C   0  0  0  0  0  0  0  0  0  0  0  0
  -31.1820   14.9430  -23.0580 C   0  0  0  0  0  0  0  0  0  0  0  0
  -30.3420   15.6730  -23.8950 C   0  0  0  0  0  0  0  0  0  0  0  0
  -30.8450   16.2840  -25.0440 C   0  0  0  0  0  0  0  0  0  0  0  0
  -32.2000   16.1840  -25.3730 C   0  0  0  0  0  0  0  0  0  0  0  0
  -33.0510   15.4630  -24.5360 C   0  0  0  0  0  0  0  0  0  0  0  0
  -32.5310   14.8580  -23.4020 C   0  0  0  0  0  0  0  0  0  0  0  0
  -33.1830   15.9060  -27.6900 N   0  0  0  0  0  0  0  0  0  0  0  0
  -34.6710   15.5120  -27.5480 C   0  0  0  0  0  0  0  0  0  0  0  0
  -35.3570   14.8570  -28.7760 C   0  0  0  0  0  0  0  0  0  0  0  0
  -34.9560   15.4590  -30.0760 N   0  0  0  0  0  0  0  0  0  0  0  0
  -33.4930   15.6100  -30.2600 C   0  0  0  0  0  0  0  0  0  0  0  0
  -32.8390   16.3910  -29.1020 C   0  0  0  0  0  0  0  0  0  0  0  0
  -35.8140   15.2520  -31.2130 C   0  0  0  0  0  0  0  0  0  0  0  0
  -37.1440   15.6250  -31.0780 C   0  0  0  0  0  0  0  0  0  0  0  0
  -38.0060   15.5110  -32.1680 C   0  0  0  0  0  0  0  0  0  0  0  0
  -37.5390   15.0530  -33.3510 N   0  0  0  0  0  0  0  0  0  0  0  0
  -36.2680   14.6800  -33.5060 N   0  0  0  0  0  0  0  0  0  0  0  0
  -35.4150   14.7520  -32.4820 C   0  0  0  0  0  0  0  0  0  0  0  0
  -34.1590   14.2630  -32.7830 N   0  0  0  0  0  0  0  0  0  0  0  0
  -39.4060   15.9180  -32.0850 C   0  0  0  0  0  0  0  0  0  0  0  0
  -40.2560   15.5020  -31.0430 C   0  0  0  0  0  0  0  0  0  0  0  0
  -41.5860   15.9090  -30.9770 C   0  0  0  0  0  0  0  0  0  0  0  0
  -42.0960   16.7460  -31.9630 C   0  0  0  0  0  0  0  0  0  0  0  0
  -41.2790   17.1660  -33.0100 C   0  0  0  0  0  0  0  0  0  0  0  0
  -39.9510   16.7550  -33.0710 C   0  0  0  0  0  0  0  0  0  0  0  0
  -39.8020   14.6670  -30.0630 O   0  0  0  0  0  0  0  0  0  0  0  0
  -32.7160   16.8520  -26.6240 C   0  0  0  0  0  0  0  0  0  0  0  0
  -32.7560   18.2710  -26.7800 O   0  0  0  0  0  0  0  0  0  0  0  0
  -28.0170   14.8160  -28.8800 H   0  0  0  0  0  0  0  0  0  0  0  0
  -27.9510   11.3280  -25.7090 H   0  0  0  0  0  0  0  0  0  0  0  0
  -28.4750   10.6340  -27.2620 H   0  0  0  0  0  0  0  0  0  0  0  0
  -29.6370   11.5190  -26.2460 H   0  0  0  0  0  0  0  0  0  0  0  0
  -27.6380   13.6820  -25.4070 H   0  0  0  0  0  0  0  0  0  0  0  0
  -29.3240   14.0030  -25.8780 H   0  0  0  0  0  0  0  0  0  0  0  0
  -27.9930   14.8550  -26.6980 H   0  0  0  0  0  0  0  0  0  0  0  0
  -26.1220   12.4920  -26.8470 H   0  0  0  0  0  0  0  0  0  0  0  0
  -26.4360   13.5650  -28.2330 H   0  0  0  0  0  0  0  0  0  0  0  0
  -26.6450   11.8050  -28.4040 H   0  0  0  0  0  0  0  0  0  0  0  0
  -33.2140   13.1590  -28.6360 H   0  0  0  0  0  0  0  0  0  0  0  0
  -30.9980   10.0730  -29.3370 H   0  0  0  0  0  0  0  0  0  0  0  0
  -30.3450   11.4190  -30.3020 H   0  0  0  0  0  0  0  0  0  0  0  0
  -29.1610   10.3630  -22.0420 H   0  0  0  0  0  0  0  0  0  0  0  0
  -32.4640    8.4210  -25.1680 H   0  0  0  0  0  0  0  0  0  0  0  0
  -25.9690    5.6310  -22.3290 H   0  0  0  0  0  0  0  0  0  0  0  0
  -28.9600   12.1670  -29.1960 H   0  0  0  0  0  0  0  0  0  0  0  0
  -34.4830   11.5380  -29.8180 H   0  0  0  0  0  0  0  0  0  0  0  0
  -33.6870   10.1760  -28.9920 H   0  0  0  0  0  0  0  0  0  0  0  0
  -32.5700   10.2780  -31.2390 H   0  0  0  0  0  0  0  0  0  0  0  0
  -32.4820   13.0410  -30.7080 H   0  0  0  0  0  0  0  0  0  0  0  0
  -31.8390   10.8070  -26.5320 H   0  0  0  0  0  0  0  0  0  0  0  0
  -33.8990   10.5640  -24.6150 H   0  0  0  0  0  0  0  0  0  0  0  0
  -32.9520   12.0240  -24.2390 H   0  0  0  0  0  0  0  0  0  0  0  0
  -30.6530    7.0210  -24.2700 H   0  0  0  0  0  0  0  0  0  0  0  0
  -29.8230    8.7790  -20.3790 H   0  0  0  0  0  0  0  0  0  0  0  0
  -28.2700    8.7660  -19.5100 H   0  0  0  0  0  0  0  0  0  0  0  0
  -29.3580    7.3610  -19.4100 H   0  0  0  0  0  0  0  0  0  0  0  0
  -27.1710   15.5840  -31.9030 H   0  0  0  0  0  0  0  0  0  0  0  0
  -27.3260   17.3060  -31.4780 H   0  0  0  0  0  0  0  0  0  0  0  0
  -29.6400   17.3850  -32.6440 H   0  0  0  0  0  0  0  0  0  0  0  0
  -29.4840   15.6630  -33.0700 H   0  0  0  0  0  0  0  0  0  0  0  0
  -29.1820   12.9670  -22.8000 H   0  0  0  0  0  0  0  0  0  0  0  0
  -29.7850   12.3470  -21.2440 H   0  0  0  0  0  0  0  0  0  0  0  0
  -29.8260   14.8420  -21.4130 H   0  0  0  0  0  0  0  0  0  0  0  0
  -31.4230   14.1210  -21.1040 H   0  0  0  0  0  0  0  0  0  0  0  0
  -29.2940   15.7670  -23.6530 H   0  0  0  0  0  0  0  0  0  0  0  0
  -30.1800   16.8410  -25.6870 H   0  0  0  0  0  0  0  0  0  0  0  0
  -34.1020   15.3770  -24.7680 H   0  0  0  0  0  0  0  0  0  0  0  0
  -33.1960   14.2990  -22.7600 H   0  0  0  0  0  0  0  0  0  0  0  0
  -35.2270   16.4180  -27.3070 H   0  0  0  0  0  0  0  0  0  0  0  0
  -34.7450   14.8090  -26.7180 H   0  0  0  0  0  0  0  0  0  0  0  0
  -36.4360   14.9640  -28.6650 H   0  0  0  0  0  0  0  0  0  0  0  0
  -35.0970   13.7990  -28.7920 H   0  0  0  0  0  0  0  0  0  0  0  0
  -33.3100   16.1450  -31.1920 H   0  0  0  0  0  0  0  0  0  0  0  0
  -33.0420   14.6190  -30.3150 H   0  0  0  0  0  0  0  0  0  0  0  0
  -31.7580   16.3260  -29.2240 H   0  0  0  0  0  0  0  0  0  0  0  0
  -33.1510   17.4320  -29.1830 H   0  0  0  0  0  0  0  0  0  0  0  0
  -37.5090   16.0010  -30.1340 H   0  0  0  0  0  0  0  0  0  0  0  0
  -33.9660   13.9000  -33.7050 H   0  0  0  0  0  0  0  0  0  0  0  0
  -33.4330   14.2690  -32.0810 H   0  0  0  0  0  0  0  0  0  0  0  0
  -42.2170   15.5770  -30.1660 H   0  0  0  0  0  0  0  0  0  0  0  0
  -43.1250   17.0700  -31.9170 H   0  0  0  0  0  0  0  0  0  0  0  0
  -41.6780   17.8130  -33.7770 H   0  0  0  0  0  0  0  0  0  0  0  0
  -39.3300   17.0850  -33.8900 H   0  0  0  0  0  0  0  0  0  0  0  0
  -40.4530   14.4280  -29.4000 H   0  0  0  0  0  0  0  0  0  0  0  0
  1 15  1  0  0  0  0
  1 31  1  0  0  0  0
  1 68  1  0  0  0  0
  2 15  1  0  0  0  0
  2 17  1  0  0  0  0
  2 18  2  0  0  0  0
  3 16  1  0  0  0  0
  3 69  1  0  0  0  0
  3 70  1  0  0  0  0
  3 71  1  0  0  0  0
  4 16  1  0  0  0  0
  4 72  1  0  0  0  0
  4 73  1  0  0  0  0
  4 74  1  0  0  0  0
  5 16  1  0  0  0  0
  5 75  1  0  0  0  0
  5 76  1  0  0  0  0
  5 77  1  0  0  0  0
  6  8  1  0  0  0  0
  6 17  1  0  0  0  0
  6 19  1  0  0  0  0
  6 78  1  0  0  0  0
  7 17  1  0  0  0  0
  7 20  1  0  0  0  0
  7 79  1  0  0  0  0
  7 80  1  0  0  0  0
  8 22  2  0  0  0  0
  8 23  1  0  0  0  0
  9 10  2  0  0  0  0
  9 25  1  0  0  0  0
  9 37  1  0  0  0  0
 10 11  1  0  0  0  0
 10 81  1  0  0  0  0
 11 26  2  0  0  0  0
 11 27  1  0  0  0  0
 12 25  2  0  0  0  0
 12 26  1  0  0  0  0
 12 82  1  0  0  0  0
 13 27  2  0  0  0  0
 13 28  1  0  0  0  0
 13 30  1  0  0  0  0
 14 28  2  0  0  0  0
 14 29  1  0  0  0  0
 14 83  1  0  0  0  0
 15 16  1  0  0  0  0
 15 84  1  0  0  0  0
 19 20  1  0  0  0  0
 19 85  1  0  0  0  0
 19 86  1  0  0  0  0
 20 21  1  0  0  0  0
 20 87  1  0  0  0  0
 21 88  1  0  0  0  0
 23 24  1  0  0  0  0
 23 89  1  0  0  0  0
 24 25  1  0  0  0  0
 24 90  1  0  0  0  0
 24 91  1  0  0  0  0
 26 92  1  0  0  0  0
 27 29  1  0  0  0  0
 30 93  1  0  0  0  0
 30 94  1  0  0  0  0
 30 95  1  0  0  0  0
 31 32  1  0  0  0  0
 31 33  2  0  0  0  0
 32 34  1  0  0  0  0
 32 35  1  0  0  0  0
 32 36  1  0  0  0  0
 35 36  1  0  0  0  0
 35 96  1  0  0  0  0
 35 97  1  0  0  0  0
 36 98  1  0  0  0  0
 36 99  1  0  0  0  0
 37 38  1  0  0  0  0
 38 39  1  0  0  0  0
 38100  1  0  0  0  0
 38101  1  0  0  0  0
 39 40  1  0  0  0  0
 39102  1  0  0  0  0
 39103  1  0  0  0  0
 40 41  1  0  0  0  0
 40 45  2  0  0  0  0
 41 42  2  0  0  0  0
 41104  1  0  0  0  0
 42 43  1  0  0  0  0
 42105  1  0  0  0  0
 43 44  2  0  0  0  0
 43 66  1  0  0  0  0
 44 45  1  0  0  0  0
 44106  1  0  0  0  0
 45107  1  0  0  0  0
 46 47  1  0  0  0  0
 46 51  1  0  0  0  0
 46 66  1  0  0  0  0
 47 48  1  0  0  0  0
 47108  1  0  0  0  0
 47109  1  0  0  0  0
 48 49  1  0  0  0  0
 48110  1  0  0  0  0
 48111  1  0  0  0  0
 49 50  1  0  0  0  0
 49 52  1  0  0  0  0
 50 51  1  0  0  0  0
 50112  1  0  0  0  0
 50113  1  0  0  0  0
 51114  1  0  0  0  0
 51115  1  0  0  0  0
 52 53  1  0  0  0  0
 52 57  2  0  0  0  0
 53 54  2  0  0  0  0
 53116  1  0  0  0  0
 54 55  1  0  0  0  0
 54 59  1  0  0  0  0
 55 56  2  0  0  0  0
 56 57  1  0  0  0  0
 57 58  1  0  0  0  0
 58117  1  0  0  0  0
 58118  1  0  0  0  0
 59 60  1  0  0  0  0
 59 64  2  0  0  0  0
 60 61  2  0  0  0  0
 60 65  1  0  0  0  0
 61 62  1  0  0  0  0
 61119  1  0  0  0  0
 62 63  2  0  0  0  0
 62120  1  0  0  0  0
 63 64  1  0  0  0  0
 63121  1  0  0  0  0
 64122  1  0  0  0  0
 65123  1  0  0  0  0
 66 67  2  0  0  0  0
M  END
$$$$
