3193
  MOE2018           3D

102107  0  0  1  0  0  0  0  0999 V2000
   -0.5840   17.8370    1.8950 O   0  0  0  0  0  0  0  0  0  0  0  0
   -1.0150   16.7930    1.4780 C   0  0  0  0  0  0  0  0  0  0  0  0
   -1.7630   16.6620    0.1640 C   0  0  0  0  0  0  0  0  0  0  0  0
   -1.3540   15.3200   -0.4860 C   0  0  0  0  0  0  0  0  0  0  0  0
   -1.7800   14.1950    0.4930 C   0  0  1  0  0  0  0  0  0  0  0  0
   -1.3120   12.9150   -0.0560 N   0  0  0  0  0  0  0  0  0  0  0  0
   -2.1520   11.8740   -0.4040 C   0  0  0  0  0  0  0  0  0  0  0  0
   -3.3680   11.9880   -0.3890 O   0  0  0  0  0  0  0  0  0  0  0  0
   -1.3360   10.7380   -0.7650 C   0  0  0  0  0  0  0  0  0  0  0  0
   -1.6740    9.4490   -1.1760 C   0  0  0  0  0  0  0  0  0  0  0  0
   -0.6450    8.5460   -1.4630 C   0  0  0  0  0  0  0  0  0  0  0  0
    0.6940    8.9290   -1.3430 C   0  0  0  0  0  0  0  0  0  0  0  0
    1.0180   10.2300   -0.9260 C   0  0  0  0  0  0  0  0  0  0  0  0
    2.3350   10.6610   -0.8110 N   0  0  0  0  0  0  0  0  0  0  0  0
    3.4170    9.7390   -0.4900 C   0  0  0  0  0  0  0  0  0  0  0  0
    4.6530   10.6310   -0.3650 C   0  0  0  0  0  0  0  0  0  0  0  0
    5.9090    9.7950   -0.0810 C   0  0  0  0  0  0  0  0  0  0  0  0
    7.1450   10.7010   -0.0020 C   0  0  0  0  0  0  0  0  0  0  0  0
    8.4120    9.8660    0.2220 C   0  0  0  0  0  0  0  0  0  0  0  0
    9.6520   10.7700    0.2430 C   0  0  0  0  0  0  0  0  0  0  0  0
   10.9260    9.9320    0.4130 C   0  0  0  0  0  0  0  0  0  0  0  0
   12.1700   10.8290    0.3760 C   0  0  0  0  0  0  0  0  0  0  0  0
   13.4450    9.9830    0.4880 C   0  0  0  0  0  0  0  0  0  0  0  0
   14.6930   10.8730    0.4100 C   0  0  0  0  0  0  0  0  0  0  0  0
   15.9630   10.0220    0.4870 C   0  0  0  0  0  0  0  0  0  0  0  0
   17.0670   10.9670    0.3490 N   0  0  0  0  0  0  0  0  0  0  0  0
   18.3290   10.5820   -0.0240 C   0  0  0  0  0  0  0  0  0  0  0  0
   18.5010    9.3910   -0.2620 O   0  0  0  0  0  0  0  0  0  0  0  0
   19.3890   11.5850   -0.1390 C   0  0  0  0  0  0  0  0  0  0  0  0
   19.3400   12.8040    0.5620 C   0  0  0  0  0  0  0  0  0  0  0  0
   20.3550   13.7440    0.4340 C   0  0  0  0  0  0  0  0  0  0  0  0
   21.4560   13.4860   -0.3980 C   0  0  0  0  0  0  0  0  0  0  0  0
   22.7710   14.6180   -0.6010 S   0  0  0  0  0  0  0  0  0  0  0  0
   22.6340   15.8310    0.7620 C   0  0  0  0  0  0  0  0  0  0  0  0
   23.9470   16.5860    0.7540 C   0  0  0  0  0  0  0  0  0  0  0  0
   24.5930   17.0990   -0.3090 C   0  0  0  0  0  0  0  0  0  0  0  0
   25.6980   17.6710    0.1850 N   0  0  0  0  0  0  0  0  0  0  0  0
   26.7370   18.3420   -0.5550 C   0  0  0  0  0  0  0  0  0  0  0  0
   26.4110   19.0660   -1.7050 C   0  0  0  0  0  0  0  0  0  0  0  0
   27.4270   19.7030   -2.4090 C   0  0  0  0  0  0  0  0  0  0  0  0
   28.7450   19.6200   -1.9660 C   0  0  0  0  0  0  0  0  0  0  0  0
   29.0790   18.9030   -0.8050 C   0  0  0  0  0  0  0  0  0  0  0  0
   30.4770   18.8490   -0.3620 C   0  0  0  0  0  0  0  0  0  0  0  0
   31.4360   19.1000   -1.0960 O   0  0  0  0  0  0  0  0  0  0  0  0
   30.7700   18.5200    0.9340 N   0  0  0  0  0  0  0  0  0  0  0  0
   32.1110   18.4620    1.3620 O   0  5  0  0  0  0  0  0  0  0  0  0
   28.0540   18.2520   -0.1010 C   0  0  0  0  0  0  0  0  0  0  0  0
   25.7170   17.5170    1.5260 N   0  0  0  0  0  0  0  0  0  0  0  0
   24.6440   16.8540    1.8790 N   0  0  0  0  0  0  0  0  0  0  0  0
   21.5120   12.2750   -1.0970 C   0  0  0  0  0  0  0  0  0  0  0  0
   20.4960   11.3400   -0.9650 C   0  0  0  0  0  0  0  0  0  0  0  0
   -0.0170   11.1260   -0.6360 C   0  0  0  0  0  0  0  0  0  0  0  0
    0.0040   12.4890   -0.1840 C   0  0  0  0  0  0  0  0  0  0  0  0
    0.9570   13.2200    0.0650 O   0  0  0  0  0  0  0  0  0  0  0  0
   -1.1600   14.4380    1.8790 C   0  0  0  0  0  0  0  0  0  0  0  0
   -0.9800   13.5740    2.7090 O   0  0  0  0  0  0  0  0  0  0  0  0
   -0.8240   15.7010    2.2610 N   0  0  0  0  0  0  0  0  0  0  0  0
   -2.8370   16.6720    0.3470 H   0  0  0  0  0  0  0  0  0  0  0  0
   -1.4990   17.4880   -0.4960 H   0  0  0  0  0  0  0  0  0  0  0  0
   -0.2760   15.2930   -0.6420 H   0  0  0  0  0  0  0  0  0  0  0  0
   -1.8620   15.1970   -1.4420 H   0  0  0  0  0  0  0  0  0  0  0  0
   -2.8640   14.1820    0.6060 H   0  0  0  0  0  0  0  0  0  0  0  0
   -2.7090    9.1540   -1.2710 H   0  0  0  0  0  0  0  0  0  0  0  0
   -0.8880    7.5430   -1.7810 H   0  0  0  0  0  0  0  0  0  0  0  0
    1.4800    8.2240   -1.5710 H   0  0  0  0  0  0  0  0  0  0  0  0
    2.5470   11.6380   -0.9540 H   0  0  0  0  0  0  0  0  0  0  0  0
    3.2180    9.2220    0.4490 H   0  0  0  0  0  0  0  0  0  0  0  0
    3.5490    9.0070   -1.2870 H   0  0  0  0  0  0  0  0  0  0  0  0
    4.7930   11.1790   -1.2970 H   0  0  0  0  0  0  0  0  0  0  0  0
    4.5020   11.3360    0.4520 H   0  0  0  0  0  0  0  0  0  0  0  0
    5.7860    9.2710    0.8670 H   0  0  0  0  0  0  0  0  0  0  0  0
    6.0460    9.0690   -0.8820 H   0  0  0  0  0  0  0  0  0  0  0  0
    7.2420   11.2570   -0.9350 H   0  0  0  0  0  0  0  0  0  0  0  0
    7.0250   11.3990    0.8260 H   0  0  0  0  0  0  0  0  0  0  0  0
    8.3330    9.3420    1.1750 H   0  0  0  0  0  0  0  0  0  0  0  0
    8.5110    9.1400   -0.5850 H   0  0  0  0  0  0  0  0  0  0  0  0
    9.5710   11.4710    1.0740 H   0  0  0  0  0  0  0  0  0  0  0  0
    9.7090   11.3230   -0.6950 H   0  0  0  0  0  0  0  0  0  0  0  0
   10.9860    9.2030   -0.3950 H   0  0  0  0  0  0  0  0  0  0  0  0
   10.8880    9.4120    1.3700 H   0  0  0  0  0  0  0  0  0  0  0  0
   12.1310   11.5310    1.2090 H   0  0  0  0  0  0  0  0  0  0  0  0
   12.1870   11.3810   -0.5640 H   0  0  0  0  0  0  0  0  0  0  0  0
   13.4690    9.2610   -0.3280 H   0  0  0  0  0  0  0  0  0  0  0  0
   13.4410    9.4540    1.4410 H   0  0  0  0  0  0  0  0  0  0  0  0
   14.6830   11.5790    1.2410 H   0  0  0  0  0  0  0  0  0  0  0  0
   14.6850   11.4210   -0.5320 H   0  0  0  0  0  0  0  0  0  0  0  0
   15.9830    9.2910   -0.3210 H   0  0  0  0  0  0  0  0  0  0  0  0
   16.0190    9.5060    1.4450 H   0  0  0  0  0  0  0  0  0  0  0  0
   16.8940   11.9440    0.5360 H   0  0  0  0  0  0  0  0  0  0  0  0
   18.5010   13.0120    1.2090 H   0  0  0  0  0  0  0  0  0  0  0  0
   20.2970   14.6760    0.9760 H   0  0  0  0  0  0  0  0  0  0  0  0
   21.8010   16.5110    0.5860 H   0  0  0  0  0  0  0  0  0  0  0  0
   22.4920   15.3210    1.7150 H   0  0  0  0  0  0  0  0  0  0  0  0
   24.2850   17.0580   -1.3430 H   0  0  0  0  0  0  0  0  0  0  0  0
   25.3870   19.1300   -2.0410 H   0  0  0  0  0  0  0  0  0  0  0  0
   27.1930   20.2640   -3.3020 H   0  0  0  0  0  0  0  0  0  0  0  0
   29.5240   20.1160   -2.5250 H   0  0  0  0  0  0  0  0  0  0  0  0
   30.0240   18.3190    1.5840 H   0  0  0  0  0  0  0  0  0  0  0  0
   28.2830   17.6840    0.7880 H   0  0  0  0  0  0  0  0  0  0  0  0
   22.3520   12.0670   -1.7430 H   0  0  0  0  0  0  0  0  0  0  0  0
   20.5580   10.4080   -1.5070 H   0  0  0  0  0  0  0  0  0  0  0  0
   -0.4120   15.8320    3.1740 H   0  0  0  0  0  0  0  0  0  0  0  0
  1  2  2  0  0  0  0
  2  3  1  0  0  0  0
  2 57  1  0  0  0  0
  3  4  1  0  0  0  0
  3 58  1  0  0  0  0
  3 59  1  0  0  0  0
  4  5  1  0  0  0  0
  4 60  1  0  0  0  0
  4 61  1  0  0  0  0
  5  6  1  0  0  0  0
  5 55  1  0  0  0  0
  5 62  1  0  0  0  0
  6  7  1  0  0  0  0
  6 53  1  0  0  0  0
  7  8  2  0  0  0  0
  7  9  1  0  0  0  0
  9 10  1  0  0  0  0
  9 52  2  0  0  0  0
 10 11  2  0  0  0  0
 10 63  1  0  0  0  0
 11 12  1  0  0  0  0
 11 64  1  0  0  0  0
 12 13  2  0  0  0  0
 12 65  1  0  0  0  0
 13 14  1  0  0  0  0
 13 52  1  0  0  0  0
 14 15  1  0  0  0  0
 14 66  1  0  0  0  0
 15 16  1  0  0  0  0
 15 67  1  0  0  0  0
 15 68  1  0  0  0  0
 16 17  1  0  0  0  0
 16 69  1  0  0  0  0
 16 70  1  0  0  0  0
 17 18  1  0  0  0  0
 17 71  1  0  0  0  0
 17 72  1  0  0  0  0
 18 19  1  0  0  0  0
 18 73  1  0  0  0  0
 18 74  1  0  0  0  0
 19 20  1  0  0  0  0
 19 75  1  0  0  0  0
 19 76  1  0  0  0  0
 20 21  1  0  0  0  0
 20 77  1  0  0  0  0
 20 78  1  0  0  0  0
 21 22  1  0  0  0  0
 21 79  1  0  0  0  0
 21 80  1  0  0  0  0
 22 23  1  0  0  0  0
 22 81  1  0  0  0  0
 22 82  1  0  0  0  0
 23 24  1  0  0  0  0
 23 83  1  0  0  0  0
 23 84  1  0  0  0  0
 24 25  1  0  0  0  0
 24 85  1  0  0  0  0
 24 86  1  0  0  0  0
 25 26  1  0  0  0  0
 25 87  1  0  0  0  0
 25 88  1  0  0  0  0
 26 27  1  0  0  0  0
 26 89  1  0  0  0  0
 27 28  2  0  0  0  0
 27 29  1  0  0  0  0
 29 30  1  0  0  0  0
 29 51  2  0  0  0  0
 30 31  2  0  0  0  0
 30 90  1  0  0  0  0
 31 32  1  0  0  0  0
 31 91  1  0  0  0  0
 32 33  1  0  0  0  0
 32 50  2  0  0  0  0
 33 34  1  0  0  0  0
 34 35  1  0  0  0  0
 34 92  1  0  0  0  0
 34 93  1  0  0  0  0
 35 36  2  0  0  0  0
 35 49  1  0  0  0  0
 36 37  1  0  0  0  0
 36 94  1  0  0  0  0
 37 38  1  0  0  0  0
 37 48  1  0  0  0  0
 38 39  1  0  0  0  0
 38 47  2  0  0  0  0
 39 40  2  0  0  0  0
 39 95  1  0  0  0  0
 40 41  1  0  0  0  0
 40 96  1  0  0  0  0
 41 42  2  0  0  0  0
 41 97  1  0  0  0  0
 42 43  1  0  0  0  0
 42 47  1  0  0  0  0
 43 44  2  0  0  0  0
 43 45  1  0  0  0  0
 45 46  1  0  0  0  0
 45 98  1  0  0  0  0
 47 99  1  0  0  0  0
 48 49  2  0  0  0  0
 50 51  1  0  0  0  0
 50100  1  0  0  0  0
 51101  1  0  0  0  0
 52 53  1  0  0  0  0
 53 54  2  0  0  0  0
 55 56  2  0  0  0  0
 55 57  1  0  0  0  0
 57102  1  0  0  0  0
M  CHG  1  46  -1
M  END
>  <Compound ID>
3193

>  <Uniprot>
Q9BY41

>  <Target>
HDAC8

>  <E3 ligase>
CRBN

>  <Article DOI>
10.1016/j.bioorg.2023.106546

>  <Molecular Weight>
794.935

>  <Exact Mass>
794.32104

>  <XLogP3>
6.02

>  <Heavy Atom Count>
57

>  <Ring Count>
6

>  <Hydrogen Bond Acceptor Count>
12

>  <Hydrogen Bond Donor Count>
5

>  <Rotatable Bond Count>
20

>  <Topological Polar Surface Area>
204.72

>  <Molecular Formula>
C41H46N8O7S

>  <InChI>
InChI=1S/C41H46N8O7S/c50-35-21-20-34(39(53)44-35)49-40(54)32-14-11-15-33(36(32)41(49)55)42-22-8-6-4-2-1-3-5-7-9-23-43-37(51)27-16-18-31(19-17-27)57-26-29-25-48(47-45-29)30-13-10-12-28(24-30)38(52)46-56/h10-19,24-25,34,42,56H,1-9,20-23,26H2,(H,43,51)(H,46,52)(H,44,50,53)

>  <InChI Key>
ZLYIZXIABSQPCB-UHFFFAOYSA-N

>  <DC50 (nM)>
702

>  <Assay (DC50/Dmax)>
Degradation of HDAC8 in T-cell leukemia Jurkat cells after 24 h treatment

$$$$
4033
  MOE2018           3D

 71 75  0  0  1  0  0  0  0  0999 V2000
   15.8770   -4.1710    0.0350 C   0  0  0  0  0  0  0  0  0  0  0  0
   15.5340   -5.5740    0.0670 O   0  0  0  0  0  0  0  0  0  0  0  0
   16.4310   -6.6240    0.1180 C   0  0  0  0  0  0  0  0  0  0  0  0
   17.8080   -6.3990    0.0920 C   0  0  0  0  0  0  0  0  0  0  0  0
   18.6830   -7.4800    0.1400 C   0  0  0  0  0  0  0  0  0  0  0  0
   18.2010   -8.7980    0.2130 C   0  0  0  0  0  0  0  0  0  0  0  0
   19.1390   -9.9190    0.2610 C   0  0  0  0  0  0  0  0  0  0  0  0
   20.3480   -9.8440    0.2450 O   0  5  0  0  0  0  0  0  0  0  0  0
   18.7260  -11.1610    0.3270 O   0  0  0  0  0  0  0  0  0  0  0  0
   16.8120   -9.0140    0.2400 C   0  0  0  0  0  0  0  0  0  0  0  0
   15.9350   -7.9330    0.1920 C   0  0  0  0  0  0  0  0  0  0  0  0
   14.5620   -8.1240    0.2180 O   0  0  0  0  0  0  0  0  0  0  0  0
   13.8900   -9.4040    0.1550 C   0  0  0  0  0  0  0  0  0  0  0  0
   12.4020   -9.0980    0.1030 C   0  0  0  0  0  0  0  0  0  0  0  0
   11.9090   -8.0910   -0.7260 C   0  0  0  0  0  0  0  0  0  0  0  0
   10.5450   -7.8270   -0.7840 C   0  0  0  0  0  0  0  0  0  0  0  0
    9.6370   -8.5750   -0.0170 C   0  0  0  0  0  0  0  0  0  0  0  0
    8.1900   -8.3290   -0.0670 C   0  0  0  0  0  0  0  0  0  0  0  0
    7.4080   -8.7270    0.7880 O   0  0  0  0  0  0  0  0  0  0  0  0
    7.6570   -7.6270   -1.1170 N   0  0  0  0  0  0  0  0  0  0  0  0
    6.2150   -7.3740   -1.2740 C   0  0  0  0  0  0  0  0  0  0  0  0
    5.8400   -6.2500   -0.2960 C   0  0  0  0  0  0  0  0  0  0  0  0
    4.4590   -5.8680   -0.6240 N   0  0  0  0  0  0  0  0  0  0  0  0
    3.7970   -4.8890    0.1110 C   0  0  0  0  0  0  0  0  0  0  0  0
    4.4770   -3.8150    0.7070 C   0  0  0  0  0  0  0  0  0  0  0  0
    3.7670   -2.8500    1.4280 C   0  0  0  0  0  0  0  0  0  0  0  0
    2.3780   -2.9400    1.5620 C   0  0  0  0  0  0  0  0  0  0  0  0
    1.7160   -4.0100    0.9630 C   0  0  0  0  0  0  0  0  0  0  0  0
    2.4070   -4.9710    0.2510 C   0  0  0  0  0  0  0  0  0  0  0  0
    1.4600   -5.9420   -0.2200 C   0  0  0  0  0  0  0  0  0  0  0  0
    1.6460   -6.9810   -0.8450 O   0  0  0  0  0  0  0  0  0  0  0  0
    0.1980   -5.5430    0.1970 N   0  0  0  0  0  0  0  0  0  0  0  0
   -1.0910   -6.1570   -0.1500 C   0  0  2  0  0  0  0  0  0  0  0  0
   -1.1630   -7.5420    0.5420 C   0  0  0  0  0  0  0  0  0  0  0  0
   -2.4810   -8.2080    0.0810 C   0  0  0  0  0  0  0  0  0  0  0  0
   -2.4180   -8.3750   -1.4260 C   0  0  0  0  0  0  0  0  0  0  0  0
   -2.8640   -9.3300   -2.0070 O   0  0  0  0  0  0  0  0  0  0  0  0
   -1.8530   -7.4060   -2.1920 N   0  0  0  0  0  0  0  0  0  0  0  0
   -1.2140   -6.3210   -1.6750 C   0  0  0  0  0  0  0  0  0  0  0  0
   -0.8190   -5.5110   -2.4830 O   0  0  0  0  0  0  0  0  0  0  0  0
    0.3200   -4.3750    0.9260 C   0  0  0  0  0  0  0  0  0  0  0  0
   -0.6440   -3.8220    1.4330 O   0  0  0  0  0  0  0  0  0  0  0  0
   10.1440   -9.5800    0.8180 C   0  0  0  0  0  0  0  0  0  0  0  0
   11.5080   -9.8400    0.8760 C   0  0  0  0  0  0  0  0  0  0  0  0
   14.9650   -3.5750   -0.0030 H   0  0  0  0  0  0  0  0  0  0  0  0
   16.4830   -3.9650   -0.8470 H   0  0  0  0  0  0  0  0  0  0  0  0
   16.4410   -3.9140    0.9310 H   0  0  0  0  0  0  0  0  0  0  0  0
   18.1930   -5.3910    0.0350 H   0  0  0  0  0  0  0  0  0  0  0  0
   19.7480   -7.3030    0.1210 H   0  0  0  0  0  0  0  0  0  0  0  0
   16.4240  -10.0200    0.2980 H   0  0  0  0  0  0  0  0  0  0  0  0
   14.1960   -9.9480   -0.7390 H   0  0  0  0  0  0  0  0  0  0  0  0
   14.1230   -9.9970    1.0390 H   0  0  0  0  0  0  0  0  0  0  0  0
   12.5930   -7.5110   -1.3280 H   0  0  0  0  0  0  0  0  0  0  0  0
   10.1800   -7.0390   -1.4260 H   0  0  0  0  0  0  0  0  0  0  0  0
    8.2860   -7.2650   -1.8190 H   0  0  0  0  0  0  0  0  0  0  0  0
    5.9990   -7.0660   -2.2970 H   0  0  0  0  0  0  0  0  0  0  0  0
    5.6500   -8.2760   -1.0400 H   0  0  0  0  0  0  0  0  0  0  0  0
    6.5090   -5.3990   -0.4240 H   0  0  0  0  0  0  0  0  0  0  0  0
    5.9000   -6.6080    0.7320 H   0  0  0  0  0  0  0  0  0  0  0  0
    3.9850   -6.3210   -1.3920 H   0  0  0  0  0  0  0  0  0  0  0  0
    5.5490   -3.7340    0.6080 H   0  0  0  0  0  0  0  0  0  0  0  0
    4.2960   -2.0270    1.8860 H   0  0  0  0  0  0  0  0  0  0  0  0
    1.8290   -2.1950    2.1190 H   0  0  0  0  0  0  0  0  0  0  0  0
   -1.9100   -5.5220    0.1870 H   0  0  0  0  0  0  0  0  0  0  0  0
   -0.3110   -8.1540    0.2460 H   0  0  0  0  0  0  0  0  0  0  0  0
   -1.1640   -7.4200    1.6250 H   0  0  0  0  0  0  0  0  0  0  0  0
   -3.3280   -7.5760    0.3480 H   0  0  0  0  0  0  0  0  0  0  0  0
   -2.5900   -9.1820    0.5570 H   0  0  0  0  0  0  0  0  0  0  0  0
   -1.9100   -7.4950   -3.1960 H   0  0  0  0  0  0  0  0  0  0  0  0
    9.4650  -10.1610    1.4250 H   0  0  0  0  0  0  0  0  0  0  0  0
   11.8780  -10.6210    1.5230 H   0  0  0  0  0  0  0  0  0  0  0  0
  1  2  1  0  0  0  0
  1 45  1  0  0  0  0
  1 46  1  0  0  0  0
  1 47  1  0  0  0  0
  2  3  1  0  0  0  0
  3  4  1  0  0  0  0
  3 11  2  0  0  0  0
  4  5  2  0  0  0  0
  4 48  1  0  0  0  0
  5  6  1  0  0  0  0
  5 49  1  0  0  0  0
  6  7  1  0  0  0  0
  6 10  2  0  0  0  0
  7  8  1  0  0  0  0
  7  9  2  0  0  0  0
 10 11  1  0  0  0  0
 10 50  1  0  0  0  0
 11 12  1  0  0  0  0
 12 13  1  0  0  0  0
 13 14  1  0  0  0  0
 13 51  1  0  0  0  0
 13 52  1  0  0  0  0
 14 15  1  0  0  0  0
 14 44  2  0  0  0  0
 15 16  2  0  0  0  0
 15 53  1  0  0  0  0
 16 17  1  0  0  0  0
 16 54  1  0  0  0  0
 17 18  1  0  0  0  0
 17 43  2  0  0  0  0
 18 19  2  0  0  0  0
 18 20  1  0  0  0  0
 20 21  1  0  0  0  0
 20 55  1  0  0  0  0
 21 22  1  0  0  0  0
 21 56  1  0  0  0  0
 21 57  1  0  0  0  0
 22 23  1  0  0  0  0
 22 58  1  0  0  0  0
 22 59  1  0  0  0  0
 23 24  1  0  0  0  0
 23 60  1  0  0  0  0
 24 25  1  0  0  0  0
 24 29  2  0  0  0  0
 25 26  2  0  0  0  0
 25 61  1  0  0  0  0
 26 27  1  0  0  0  0
 26 62  1  0  0  0  0
 27 28  2  0  0  0  0
 27 63  1  0  0  0  0
 28 29  1  0  0  0  0
 28 41  1  0  0  0  0
 29 30  1  0  0  0  0
 30 31  2  0  0  0  0
 30 32  1  0  0  0  0
 32 33  1  0  0  0  0
 32 41  1  0  0  0  0
 33 34  1  0  0  0  0
 33 39  1  0  0  0  0
 33 64  1  0  0  0  0
 34 35  1  0  0  0  0
 34 65  1  0  0  0  0
 34 66  1  0  0  0  0
 35 36  1  0  0  0  0
 35 67  1  0  0  0  0
 35 68  1  0  0  0  0
 36 37  2  0  0  0  0
 36 38  1  0  0  0  0
 38 39  1  0  0  0  0
 38 69  1  0  0  0  0
 39 40  2  0  0  0  0
 41 42  2  0  0  0  0
 43 44  1  0  0  0  0
 43 70  1  0  0  0  0
 44 71  1  0  0  0  0
M  CHG  1   8  -1
M  END
>  <Compound ID>
4033

>  <Uniprot>
Q9BY41

>  <Target>
HDAC8

>  <E3 ligase>
CRBN

>  <Article DOI>
10.1016/j.bioorg.2023.106546

>  <Molecular Weight>
600.58398

>  <Exact Mass>
600.18561

>  <XLogP3>
2.5999999

>  <Heavy Atom Count>
44

>  <Ring Count>
5

>  <Hydrogen Bond Acceptor Count>
9

>  <Hydrogen Bond Donor Count>
4

>  <Rotatable Bond Count>
11

>  <Topological Polar Surface Area>
180.44

>  <Molecular Formula>
C31H28N4O9

>  <InChI>
InChI=1S/C31H28N4O9/c1-43-23-11-9-19(31(41)42)15-24(23)44-16-17-5-7-18(8-6-17)27(37)33-14-13-32-21-4-2-3-20-26(21)30(40)35(29(20)39)22-10-12-25(36)34-28(22)38/h2-9,11,15,22,32H,10,12-14,16H2,1H3,(H,33,37)(H,41,42)(H,34,36,38)

>  <InChI Key>
OVGJMQWPRUXZPK-UHFFFAOYSA-N

>  <DC50 (nM)>
53

>  <Assay (DC50/Dmax)>
Degradation of HDAC8 in MDA-MB-231 cells after 24 h treatment

>  <Dmax (%)>
95

>  <Percent degradation (%)>
90/93

>  <Assay (Percent degradation)>
% HDAC8 degradation in MDA-MB-231 cells after 24 h treatment at 1000/10000 nM

$$$$
4034
  MOE2018           3D

 77 81  0  0  1  0  0  0  0  0999 V2000
   20.9440   -0.6420   -0.3270 C   0  0  0  0  0  0  0  0  0  0  0  0
   20.6620    0.7690   -0.2020 O   0  0  0  0  0  0  0  0  0  0  0  0
   21.6000    1.7690   -0.0310 C   0  0  0  0  0  0  0  0  0  0  0  0
   22.9630    1.4750    0.0470 C   0  0  0  0  0  0  0  0  0  0  0  0
   23.8790    2.5070    0.2270 C   0  0  0  0  0  0  0  0  0  0  0  0
   23.4540    3.8420    0.3340 C   0  0  0  0  0  0  0  0  0  0  0  0
   24.4350    4.9100    0.5230 C   0  0  0  0  0  0  0  0  0  0  0  0
   25.6350    4.7760    0.6060 O   0  5  0  0  0  0  0  0  0  0  0  0
   24.0750    6.1670    0.6260 O   0  0  0  0  0  0  0  0  0  0  0  0
   22.0800    4.1270    0.2530 C   0  0  0  0  0  0  0  0  0  0  0  0
   21.1600    3.0960    0.0690 C   0  0  0  0  0  0  0  0  0  0  0  0
   19.8000    3.3550   -0.0210 O   0  0  0  0  0  0  0  0  0  0  0  0
   19.1870    4.6450    0.2120 C   0  0  0  0  0  0  0  0  0  0  0  0
   17.6980    4.4670   -0.0350 C   0  0  0  0  0  0  0  0  0  0  0  0
   16.9970    3.4110    0.5490 C   0  0  0  0  0  0  0  0  0  0  0  0
   15.6260    3.2820    0.3540 C   0  0  0  0  0  0  0  0  0  0  0  0
   14.9220    4.2120   -0.4220 C   0  0  0  0  0  0  0  0  0  0  0  0
   13.4670    4.0950   -0.5730 C   0  0  0  0  0  0  0  0  0  0  0  0
   12.8570    3.0390   -0.4680 O   0  0  0  0  0  0  0  0  0  0  0  0
   12.7360    5.2290   -0.8140 N   0  0  0  0  0  0  0  0  0  0  0  0
   11.2860    5.2460   -0.9890 C   0  0  0  0  0  0  0  0  0  0  0  0
   10.8370    6.5450   -0.3140 C   0  0  0  0  0  0  0  0  0  0  0  0
    9.3330    6.7830   -0.5110 C   0  0  0  0  0  0  0  0  0  0  0  0
    8.9000    8.0740    0.1870 C   0  0  0  0  0  0  0  0  0  0  0  0
    7.5060    8.2510   -0.1960 N   0  0  0  0  0  0  0  0  0  0  0  0
    6.7230    9.3040    0.2680 C   0  0  0  0  0  0  0  0  0  0  0  0
    7.2850   10.4960    0.7510 C   0  0  0  0  0  0  0  0  0  0  0  0
    6.4580   11.5340    1.1900 C   0  0  0  0  0  0  0  0  0  0  0  0
    5.0660   11.4010    1.1510 C   0  0  0  0  0  0  0  0  0  0  0  0
    4.5220   10.2110    0.6680 C   0  0  0  0  0  0  0  0  0  0  0  0
    5.3290    9.1770    0.2390 C   0  0  0  0  0  0  0  0  0  0  0  0
    4.4810    8.0920   -0.1720 C   0  0  0  0  0  0  0  0  0  0  0  0
    4.7760    6.9680   -0.5640 O   0  0  0  0  0  0  0  0  0  0  0  0
    3.1630    8.4980   -0.0070 N   0  0  0  0  0  0  0  0  0  0  0  0
    1.9530    7.7670   -0.4050 C   0  0  2  0  0  0  0  0  0  0  0  0
    1.8190    6.5290    0.5190 C   0  0  0  0  0  0  0  0  0  0  0  0
    0.6000    5.7210    0.0150 C   0  0  0  0  0  0  0  0  0  0  0  0
    0.8870    5.2850   -1.4100 C   0  0  0  0  0  0  0  0  0  0  0  0
    0.5560    4.2170   -1.8560 O   0  0  0  0  0  0  0  0  0  0  0  0
    1.5280    6.1270   -2.2590 N   0  0  0  0  0  0  0  0  0  0  0  0
    2.0530    7.3230   -1.8740 C   0  0  0  0  0  0  0  0  0  0  0  0
    2.5340    7.9940   -2.7600 O   0  0  0  0  0  0  0  0  0  0  0  0
    3.1530    9.7790    0.5090 C   0  0  0  0  0  0  0  0  0  0  0  0
    2.1140   10.3650    0.7730 O   0  0  0  0  0  0  0  0  0  0  0  0
   15.6400    5.2540   -1.0300 C   0  0  0  0  0  0  0  0  0  0  0  0
   17.0110    5.3810   -0.8320 C   0  0  0  0  0  0  0  0  0  0  0  0
   20.0100   -1.1900   -0.4510 H   0  0  0  0  0  0  0  0  0  0  0  0
   21.4540   -0.9920    0.5710 H   0  0  0  0  0  0  0  0  0  0  0  0
   21.5810   -0.8100   -1.1950 H   0  0  0  0  0  0  0  0  0  0  0  0
   23.3040    0.4530   -0.0320 H   0  0  0  0  0  0  0  0  0  0  0  0
   24.9330    2.2780    0.2850 H   0  0  0  0  0  0  0  0  0  0  0  0
   21.7360    5.1480    0.3340 H   0  0  0  0  0  0  0  0  0  0  0  0
   19.3630    4.9650    1.2390 H   0  0  0  0  0  0  0  0  0  0  0  0
   19.5970    5.3860   -0.4750 H   0  0  0  0  0  0  0  0  0  0  0  0
   17.5230    2.6890    1.1560 H   0  0  0  0  0  0  0  0  0  0  0  0
   15.0980    2.4550    0.8060 H   0  0  0  0  0  0  0  0  0  0  0  0
   13.2310    6.1070   -0.8740 H   0  0  0  0  0  0  0  0  0  0  0  0
   11.0250    5.2510   -2.0470 H   0  0  0  0  0  0  0  0  0  0  0  0
   10.8290    4.3820   -0.5060 H   0  0  0  0  0  0  0  0  0  0  0  0
   11.0500    6.4830    0.7530 H   0  0  0  0  0  0  0  0  0  0  0  0
   11.3890    7.3800   -0.7470 H   0  0  0  0  0  0  0  0  0  0  0  0
    8.7790    5.9440   -0.0900 H   0  0  0  0  0  0  0  0  0  0  0  0
    9.1190    6.8620   -1.5770 H   0  0  0  0  0  0  0  0  0  0  0  0
    9.5020    8.9160   -0.1540 H   0  0  0  0  0  0  0  0  0  0  0  0
    8.9920    7.9760    1.2690 H   0  0  0  0  0  0  0  0  0  0  0  0
    7.0890    7.5800   -0.8260 H   0  0  0  0  0  0  0  0  0  0  0  0
    8.3580   10.6110    0.7840 H   0  0  0  0  0  0  0  0  0  0  0  0
    6.8980   12.4470    1.5630 H   0  0  0  0  0  0  0  0  0  0  0  0
    4.4260   12.2030    1.4880 H   0  0  0  0  0  0  0  0  0  0  0  0
    1.0780    8.4100   -0.3090 H   0  0  0  0  0  0  0  0  0  0  0  0
    2.7210    5.9200    0.4630 H   0  0  0  0  0  0  0  0  0  0  0  0
    1.6580    6.8460    1.5490 H   0  0  0  0  0  0  0  0  0  0  0  0
   -0.2930    6.3450    0.0390 H   0  0  0  0  0  0  0  0  0  0  0  0
    0.4490    4.8460    0.6470 H   0  0  0  0  0  0  0  0  0  0  0  0
    1.6210    5.8530   -3.2270 H   0  0  0  0  0  0  0  0  0  0  0  0
   15.1230    5.9640   -1.6580 H   0  0  0  0  0  0  0  0  0  0  0  0
   17.5470    6.1940   -1.2990 H   0  0  0  0  0  0  0  0  0  0  0  0
  1  2  1  0  0  0  0
  1 47  1  0  0  0  0
  1 48  1  0  0  0  0
  1 49  1  0  0  0  0
  2  3  1  0  0  0  0
  3  4  1  0  0  0  0
  3 11  2  0  0  0  0
  4  5  2  0  0  0  0
  4 50  1  0  0  0  0
  5  6  1  0  0  0  0
  5 51  1  0  0  0  0
  6  7  1  0  0  0  0
  6 10  2  0  0  0  0
  7  8  1  0  0  0  0
  7  9  2  0  0  0  0
 10 11  1  0  0  0  0
 10 52  1  0  0  0  0
 11 12  1  0  0  0  0
 12 13  1  0  0  0  0
 13 14  1  0  0  0  0
 13 53  1  0  0  0  0
 13 54  1  0  0  0  0
 14 15  1  0  0  0  0
 14 46  2  0  0  0  0
 15 16  2  0  0  0  0
 15 55  1  0  0  0  0
 16 17  1  0  0  0  0
 16 56  1  0  0  0  0
 17 18  1  0  0  0  0
 17 45  2  0  0  0  0
 18 19  2  0  0  0  0
 18 20  1  0  0  0  0
 20 21  1  0  0  0  0
 20 57  1  0  0  0  0
 21 22  1  0  0  0  0
 21 58  1  0  0  0  0
 21 59  1  0  0  0  0
 22 23  1  0  0  0  0
 22 60  1  0  0  0  0
 22 61  1  0  0  0  0
 23 24  1  0  0  0  0
 23 62  1  0  0  0  0
 23 63  1  0  0  0  0
 24 25  1  0  0  0  0
 24 64  1  0  0  0  0
 24 65  1  0  0  0  0
 25 26  1  0  0  0  0
 25 66  1  0  0  0  0
 26 27  1  0  0  0  0
 26 31  2  0  0  0  0
 27 28  2  0  0  0  0
 27 67  1  0  0  0  0
 28 29  1  0  0  0  0
 28 68  1  0  0  0  0
 29 30  2  0  0  0  0
 29 69  1  0  0  0  0
 30 31  1  0  0  0  0
 30 43  1  0  0  0  0
 31 32  1  0  0  0  0
 32 33  2  0  0  0  0
 32 34  1  0  0  0  0
 34 35  1  0  0  0  0
 34 43  1  0  0  0  0
 35 36  1  0  0  0  0
 35 41  1  0  0  0  0
 35 70  1  0  0  0  0
 36 37  1  0  0  0  0
 36 71  1  0  0  0  0
 36 72  1  0  0  0  0
 37 38  1  0  0  0  0
 37 73  1  0  0  0  0
 37 74  1  0  0  0  0
 38 39  2  0  0  0  0
 38 40  1  0  0  0  0
 40 41  1  0  0  0  0
 40 75  1  0  0  0  0
 41 42  2  0  0  0  0
 43 44  2  0  0  0  0
 45 46  1  0  0  0  0
 45 76  1  0  0  0  0
 46 77  1  0  0  0  0
M  CHG  1   8  -1
M  END
>  <Compound ID>
4034

>  <Uniprot>
Q9BY41

>  <Target>
HDAC8

>  <E3 ligase>
CRBN

>  <Article DOI>
10.1016/j.bioorg.2023.106546

>  <Molecular Weight>
628.638

>  <Exact Mass>
628.21692

>  <XLogP3>
3.3099999

>  <Heavy Atom Count>
46

>  <Ring Count>
5

>  <Hydrogen Bond Acceptor Count>
9

>  <Hydrogen Bond Donor Count>
4

>  <Rotatable Bond Count>
13

>  <Topological Polar Surface Area>
180.44

>  <Molecular Formula>
C33H32N4O9

>  <InChI>
InChI=1S/C33H32N4O9/c1-45-25-13-11-21(33(43)44)17-26(25)46-18-19-7-9-20(10-8-19)29(39)35-16-3-2-15-34-23-6-4-5-22-28(23)32(42)37(31(22)41)24-12-14-27(38)36-30(24)40/h4-11,13,17,24,34H,2-3,12,14-16,18H2,1H3,(H,35,39)(H,43,44)(H,36,38,40)

>  <InChI Key>
SFAZMJOUZPQYHW-UHFFFAOYSA-N

>  <DC50 (nM)>
119

>  <Assay (DC50/Dmax)>
Degradation of HDAC8 in MDA-MB-231 cells after 24 h treatment

>  <Dmax (%)>
96

>  <Percent degradation (%)>
83/75

>  <Assay (Percent degradation)>
% HDAC8 degradation in MDA-MB-231 cells after 24 h treatment at 1000/10000 nM

$$$$
4035
  MOE2018           3D

 83 87  0  0  1  0  0  0  0  0999 V2000
   17.6270   -7.8770    0.5220 C   0  0  0  0  0  0  0  0  0  0  0  0
   17.3970   -9.2920    0.3390 O   0  0  0  0  0  0  0  0  0  0  0  0
   18.3690  -10.2400    0.0810 C   0  0  0  0  0  0  0  0  0  0  0  0
   19.7090   -9.8790   -0.0700 C   0  0  0  0  0  0  0  0  0  0  0  0
   20.6610  -10.8590   -0.3340 C   0  0  0  0  0  0  0  0  0  0  0  0
   20.2920  -12.2120   -0.4500 C   0  0  0  0  0  0  0  0  0  0  0  0
   21.2880  -13.2470   -0.7260 C   0  0  0  0  0  0  0  0  0  0  0  0
   21.0730  -14.4330   -0.8460 O   0  5  0  0  0  0  0  0  0  0  0  0
   22.5580  -12.9600   -0.8750 O   0  0  0  0  0  0  0  0  0  0  0  0
   18.9420  -12.5640   -0.2950 C   0  0  0  0  0  0  0  0  0  0  0  0
   17.9870  -11.5840   -0.0330 C   0  0  0  0  0  0  0  0  0  0  0  0
   16.6490  -11.9100    0.1220 O   0  0  0  0  0  0  0  0  0  0  0  0
   16.0790  -13.2230   -0.0960 C   0  0  0  0  0  0  0  0  0  0  0  0
   14.5800  -13.0670    0.0980 C   0  0  0  0  0  0  0  0  0  0  0  0
   13.8770  -13.9800    0.8830 C   0  0  0  0  0  0  0  0  0  0  0  0
   12.5010  -13.8540    1.0460 C   0  0  0  0  0  0  0  0  0  0  0  0
   11.7970  -12.8110    0.4300 C   0  0  0  0  0  0  0  0  0  0  0  0
   10.3450  -12.7000    0.6220 C   0  0  0  0  0  0  0  0  0  0  0  0
    9.6430  -13.6370    0.9850 O   0  0  0  0  0  0  0  0  0  0  0  0
    9.7230  -11.4970    0.4060 N   0  0  0  0  0  0  0  0  0  0  0  0
    8.2990  -11.2990    0.6590 C   0  0  0  0  0  0  0  0  0  0  0  0
    7.9190  -10.0380   -0.1210 C   0  0  0  0  0  0  0  0  0  0  0  0
    6.4220   -9.7360    0.0420 C   0  0  0  0  0  0  0  0  0  0  0  0
    6.0310   -8.4730   -0.7380 C   0  0  0  0  0  0  0  0  0  0  0  0
    4.5330   -8.1790   -0.5730 C   0  0  0  0  0  0  0  0  0  0  0  0
    4.1340   -6.9100   -1.3350 C   0  0  0  0  0  0  0  0  0  0  0  0
    2.6930   -6.7620   -1.1280 N   0  0  0  0  0  0  0  0  0  0  0  0
    2.1090   -6.3120    0.0570 C   0  0  0  0  0  0  0  0  0  0  0  0
    2.7950   -5.4930    0.9680 C   0  0  0  0  0  0  0  0  0  0  0  0
    2.1620   -5.0620    2.1370 C   0  0  0  0  0  0  0  0  0  0  0  0
    0.8430   -5.4340    2.4130 C   0  0  0  0  0  0  0  0  0  0  0  0
    0.1730   -6.2460    1.4980 C   0  0  0  0  0  0  0  0  0  0  0  0
    0.7890   -6.6810    0.3420 C   0  0  0  0  0  0  0  0  0  0  0  0
   -0.1440   -7.5070   -0.3740 C   0  0  0  0  0  0  0  0  0  0  0  0
    0.0010   -8.1330   -1.4180 O   0  0  0  0  0  0  0  0  0  0  0  0
   -1.3250   -7.5450    0.3560 N   0  0  0  0  0  0  0  0  0  0  0  0
   -2.5990   -8.1600   -0.0450 C   0  0  2  0  0  0  0  0  0  0  0  0
   -2.4020   -9.6980   -0.0710 C   0  0  0  0  0  0  0  0  0  0  0  0
   -3.7220  -10.3120   -0.5930 C   0  0  0  0  0  0  0  0  0  0  0  0
   -3.9570   -9.7870   -1.9980 C   0  0  0  0  0  0  0  0  0  0  0  0
   -4.4270  -10.4520   -2.8840 O   0  0  0  0  0  0  0  0  0  0  0  0
   -3.6540   -8.4990   -2.2990 N   0  0  0  0  0  0  0  0  0  0  0  0
   -3.0210   -7.6570   -1.4350 C   0  0  0  0  0  0  0  0  0  0  0  0
   -2.8750   -6.5200   -1.8250 O   0  0  0  0  0  0  0  0  0  0  0  0
   -1.1630   -6.7920    1.5030 C   0  0  0  0  0  0  0  0  0  0  0  0
   -2.0500   -6.6770    2.3350 O   0  0  0  0  0  0  0  0  0  0  0  0
   12.5120  -11.9010   -0.3640 C   0  0  0  0  0  0  0  0  0  0  0  0
   13.8870  -12.0290   -0.5250 C   0  0  0  0  0  0  0  0  0  0  0  0
   16.6780   -7.3760    0.7110 H   0  0  0  0  0  0  0  0  0  0  0  0
   18.0830   -7.4640   -0.3770 H   0  0  0  0  0  0  0  0  0  0  0  0
   18.2940   -7.7240    1.3710 H   0  0  0  0  0  0  0  0  0  0  0  0
   20.0050   -8.8440    0.0180 H   0  0  0  0  0  0  0  0  0  0  0  0
   21.6970  -10.5770   -0.4510 H   0  0  0  0  0  0  0  0  0  0  0  0
   18.6430  -13.5980   -0.3790 H   0  0  0  0  0  0  0  0  0  0  0  0
   16.2960  -13.5670   -1.1070 H   0  0  0  0  0  0  0  0  0  0  0  0
   16.4820  -13.9350    0.6240 H   0  0  0  0  0  0  0  0  0  0  0  0
   14.4030  -14.7890    1.3670 H   0  0  0  0  0  0  0  0  0  0  0  0
   11.9690  -14.5690    1.6550 H   0  0  0  0  0  0  0  0  0  0  0  0
   10.2690  -10.7210    0.0600 H   0  0  0  0  0  0  0  0  0  0  0  0
    7.7260  -12.1550    0.3030 H   0  0  0  0  0  0  0  0  0  0  0  0
    8.1170  -11.1580    1.7240 H   0  0  0  0  0  0  0  0  0  0  0  0
    8.4980   -9.1950    0.2560 H   0  0  0  0  0  0  0  0  0  0  0  0
    8.1420  -10.1890   -1.1770 H   0  0  0  0  0  0  0  0  0  0  0  0
    5.8440  -10.5810   -0.3330 H   0  0  0  0  0  0  0  0  0  0  0  0
    6.2010   -9.5860    1.0990 H   0  0  0  0  0  0  0  0  0  0  0  0
    6.2530   -8.6210   -1.7950 H   0  0  0  0  0  0  0  0  0  0  0  0
    6.6060   -7.6270   -0.3610 H   0  0  0  0  0  0  0  0  0  0  0  0
    4.3110   -8.0440    0.4860 H   0  0  0  0  0  0  0  0  0  0  0  0
    3.9600   -9.0220   -0.9600 H   0  0  0  0  0  0  0  0  0  0  0  0
    4.3570   -7.0180   -2.3970 H   0  0  0  0  0  0  0  0  0  0  0  0
    4.6660   -6.0450   -0.9380 H   0  0  0  0  0  0  0  0  0  0  0  0
    2.0800   -7.0020   -1.8940 H   0  0  0  0  0  0  0  0  0  0  0  0
    3.8130   -5.1960    0.7650 H   0  0  0  0  0  0  0  0  0  0  0  0
    2.6970   -4.4350    2.8350 H   0  0  0  0  0  0  0  0  0  0  0  0
    0.3530   -5.1000    3.3160 H   0  0  0  0  0  0  0  0  0  0  0  0
   -3.3840   -7.8910    0.6620 H   0  0  0  0  0  0  0  0  0  0  0  0
   -1.5790   -9.9590   -0.7360 H   0  0  0  0  0  0  0  0  0  0  0  0
   -2.1890  -10.0660    0.9330 H   0  0  0  0  0  0  0  0  0  0  0  0
   -4.5480  -10.0190    0.0550 H   0  0  0  0  0  0  0  0  0  0  0  0
   -3.6430  -11.3990   -0.6120 H   0  0  0  0  0  0  0  0  0  0  0  0
   -3.9110   -8.1470   -3.2100 H   0  0  0  0  0  0  0  0  0  0  0  0
   11.9890  -11.0930   -0.8550 H   0  0  0  0  0  0  0  0  0  0  0  0
   14.4230  -11.3190   -1.1370 H   0  0  0  0  0  0  0  0  0  0  0  0
  1  2  1  0  0  0  0
  1 49  1  0  0  0  0
  1 50  1  0  0  0  0
  1 51  1  0  0  0  0
  2  3  1  0  0  0  0
  3  4  1  0  0  0  0
  3 11  2  0  0  0  0
  4  5  2  0  0  0  0
  4 52  1  0  0  0  0
  5  6  1  0  0  0  0
  5 53  1  0  0  0  0
  6  7  1  0  0  0  0
  6 10  2  0  0  0  0
  7  8  1  0  0  0  0
  7  9  2  0  0  0  0
 10 11  1  0  0  0  0
 10 54  1  0  0  0  0
 11 12  1  0  0  0  0
 12 13  1  0  0  0  0
 13 14  1  0  0  0  0
 13 55  1  0  0  0  0
 13 56  1  0  0  0  0
 14 15  1  0  0  0  0
 14 48  2  0  0  0  0
 15 16  2  0  0  0  0
 15 57  1  0  0  0  0
 16 17  1  0  0  0  0
 16 58  1  0  0  0  0
 17 18  1  0  0  0  0
 17 47  2  0  0  0  0
 18 19  2  0  0  0  0
 18 20  1  0  0  0  0
 20 21  1  0  0  0  0
 20 59  1  0  0  0  0
 21 22  1  0  0  0  0
 21 60  1  0  0  0  0
 21 61  1  0  0  0  0
 22 23  1  0  0  0  0
 22 62  1  0  0  0  0
 22 63  1  0  0  0  0
 23 24  1  0  0  0  0
 23 64  1  0  0  0  0
 23 65  1  0  0  0  0
 24 25  1  0  0  0  0
 24 66  1  0  0  0  0
 24 67  1  0  0  0  0
 25 26  1  0  0  0  0
 25 68  1  0  0  0  0
 25 69  1  0  0  0  0
 26 27  1  0  0  0  0
 26 70  1  0  0  0  0
 26 71  1  0  0  0  0
 27 28  1  0  0  0  0
 27 72  1  0  0  0  0
 28 29  1  0  0  0  0
 28 33  2  0  0  0  0
 29 30  2  0  0  0  0
 29 73  1  0  0  0  0
 30 31  1  0  0  0  0
 30 74  1  0  0  0  0
 31 32  2  0  0  0  0
 31 75  1  0  0  0  0
 32 33  1  0  0  0  0
 32 45  1  0  0  0  0
 33 34  1  0  0  0  0
 34 35  2  0  0  0  0
 34 36  1  0  0  0  0
 36 37  1  0  0  0  0
 36 45  1  0  0  0  0
 37 38  1  0  0  0  0
 37 43  1  0  0  0  0
 37 76  1  0  0  0  0
 38 39  1  0  0  0  0
 38 77  1  0  0  0  0
 38 78  1  0  0  0  0
 39 40  1  0  0  0  0
 39 79  1  0  0  0  0
 39 80  1  0  0  0  0
 40 41  2  0  0  0  0
 40 42  1  0  0  0  0
 42 43  1  0  0  0  0
 42 81  1  0  0  0  0
 43 44  2  0  0  0  0
 45 46  2  0  0  0  0
 47 48  1  0  0  0  0
 47 82  1  0  0  0  0
 48 83  1  0  0  0  0
M  CHG  1   8  -1
M  END
>  <Compound ID>
4035

>  <Uniprot>
Q9BY41

>  <Target>
HDAC8

>  <E3 ligase>
CRBN

>  <Article DOI>
10.1016/j.bioorg.2023.106546

>  <Molecular Weight>
656.69202

>  <Exact Mass>
656.24823

>  <XLogP3>
4.0300002

>  <Heavy Atom Count>
48

>  <Ring Count>
5

>  <Hydrogen Bond Acceptor Count>
9

>  <Hydrogen Bond Donor Count>
4

>  <Rotatable Bond Count>
15

>  <Topological Polar Surface Area>
180.44

>  <Molecular Formula>
C35H36N4O9

>  <InChI>
InChI=1S/C35H36N4O9/c1-47-27-15-13-23(35(45)46)19-28(27)48-20-21-9-11-22(12-10-21)31(41)37-18-5-3-2-4-17-36-25-8-6-7-24-30(25)34(44)39(33(24)43)26-14-16-29(40)38-32(26)42/h6-13,15,19,26,36H,2-5,14,16-18,20H2,1H3,(H,37,41)(H,45,46)(H,38,40,42)

>  <InChI Key>
OHGZHFFSUIAVDY-UHFFFAOYSA-N

>  <DC50 (nM)>
14

>  <Assay (DC50/Dmax)>
Degradation of HDAC8 in MDA-MB-231 cells after 24 h treatment

>  <Dmax (%)>
91

>  <Percent degradation (%)>
94/44

>  <Assay (Percent degradation)>
% HDAC8 degradation in MDA-MB-231 cells after 24 h treatment at 1000/10000 nM

$$$$
4036
  MOE2018           3D

 89 93  0  0  1  0  0  0  0  0999 V2000
   17.1520   -4.3890   -0.3020 C   0  0  0  0  0  0  0  0  0  0  0  0
   17.5770   -5.7510   -0.0740 O   0  0  0  0  0  0  0  0  0  0  0  0
   18.8470   -6.1480    0.3010 C   0  0  0  0  0  0  0  0  0  0  0  0
   19.8480   -5.2110    0.5610 C   0  0  0  0  0  0  0  0  0  0  0  0
   21.1140   -5.6460    0.9430 C   0  0  0  0  0  0  0  0  0  0  0  0
   21.4010   -7.0160    1.0710 C   0  0  0  0  0  0  0  0  0  0  0  0
   22.7400   -7.4470    1.4710 C   0  0  0  0  0  0  0  0  0  0  0  0
   23.6800   -6.7270    1.7230 O   0  5  0  0  0  0  0  0  0  0  0  0
   23.0480   -8.7150    1.5960 O   0  0  0  0  0  0  0  0  0  0  0  0
   20.3860   -7.9510    0.8060 C   0  0  0  0  0  0  0  0  0  0  0  0
   19.1180   -7.5170    0.4230 C   0  0  0  0  0  0  0  0  0  0  0  0
   18.1040   -8.4220    0.1520 O   0  0  0  0  0  0  0  0  0  0  0  0
   18.1570   -9.8460    0.4030 C   0  0  0  0  0  0  0  0  0  0  0  0
   16.8190  -10.4050   -0.0530 C   0  0  0  0  0  0  0  0  0  0  0  0
   16.7730  -11.5910   -0.7850 C   0  0  0  0  0  0  0  0  0  0  0  0
   15.5540  -12.1210   -1.1920 C   0  0  0  0  0  0  0  0  0  0  0  0
   14.3490  -11.4800   -0.8730 C   0  0  0  0  0  0  0  0  0  0  0  0
   13.0750  -12.0690   -1.3070 C   0  0  0  0  0  0  0  0  0  0  0  0
   12.9950  -12.9170   -2.1890 O   0  0  0  0  0  0  0  0  0  0  0  0
   11.9080  -11.6890   -0.6980 N   0  0  0  0  0  0  0  0  0  0  0  0
   10.6260  -12.3090   -1.0180 C   0  0  0  0  0  0  0  0  0  0  0  0
    9.5620  -11.3800   -0.4270 C   0  0  0  0  0  0  0  0  0  0  0  0
    8.1560  -11.9260   -0.7180 C   0  0  0  0  0  0  0  0  0  0  0  0
    7.0750  -11.0080   -0.1300 C   0  0  0  0  0  0  0  0  0  0  0  0
    5.6780  -11.5650   -0.4360 C   0  0  0  0  0  0  0  0  0  0  0  0
    4.5850  -10.6510    0.1370 C   0  0  0  0  0  0  0  0  0  0  0  0
    3.1920  -11.2120   -0.1880 C   0  0  0  0  0  0  0  0  0  0  0  0
    2.0880  -10.3010    0.3510 C   0  0  0  0  0  0  0  0  0  0  0  0
    0.8480  -10.9510   -0.0570 N   0  0  0  0  0  0  0  0  0  0  0  0
   -0.4030  -10.4520    0.2950 C   0  0  0  0  0  0  0  0  0  0  0  0
   -0.6210   -9.0830    0.5200 C   0  0  0  0  0  0  0  0  0  0  0  0
   -1.8980   -8.6230    0.8520 C   0  0  0  0  0  0  0  0  0  0  0  0
   -2.9700   -9.5130    0.9630 C   0  0  0  0  0  0  0  0  0  0  0  0
   -2.7390  -10.8700    0.7370 C   0  0  0  0  0  0  0  0  0  0  0  0
   -1.4810  -11.3370    0.4120 C   0  0  0  0  0  0  0  0  0  0  0  0
   -1.5610  -12.7630    0.2660 C   0  0  0  0  0  0  0  0  0  0  0  0
   -0.6770  -13.5810    0.0310 O   0  0  0  0  0  0  0  0  0  0  0  0
   -2.8790  -13.1410    0.4880 N   0  0  0  0  0  0  0  0  0  0  0  0
   -3.4600  -14.4810    0.3250 C   0  0  2  0  0  0  0  0  0  0  0  0
   -2.8690  -15.3960    1.4290 C   0  0  0  0  0  0  0  0  0  0  0  0
   -3.4080  -16.8230    1.1690 C   0  0  0  0  0  0  0  0  0  0  0  0
   -2.9190  -17.2640   -0.1980 C   0  0  0  0  0  0  0  0  0  0  0  0
   -2.5790  -18.3910   -0.4490 O   0  0  0  0  0  0  0  0  0  0  0  0
   -2.8700  -16.3720   -1.2200 N   0  0  0  0  0  0  0  0  0  0  0  0
   -3.1200  -15.0430   -1.0660 C   0  0  0  0  0  0  0  0  0  0  0  0
   -3.1030  -14.3860   -2.0820 O   0  0  0  0  0  0  0  0  0  0  0  0
   -3.6210  -12.0120    0.7820 C   0  0  0  0  0  0  0  0  0  0  0  0
   -4.8130  -12.0680    1.0410 O   0  0  0  0  0  0  0  0  0  0  0  0
   14.4040  -10.2820   -0.1440 C   0  0  0  0  0  0  0  0  0  0  0  0
   15.6250   -9.7560    0.2650 C   0  0  0  0  0  0  0  0  0  0  0  0
   16.1000   -4.3790   -0.5860 H   0  0  0  0  0  0  0  0  0  0  0  0
   17.7480   -3.9510   -1.1030 H   0  0  0  0  0  0  0  0  0  0  0  0
   17.2870   -3.8090    0.6110 H   0  0  0  0  0  0  0  0  0  0  0  0
   19.6420   -4.1550    0.4660 H   0  0  0  0  0  0  0  0  0  0  0  0
   21.8880   -4.9200    1.1440 H   0  0  0  0  0  0  0  0  0  0  0  0
   20.5890   -9.0080    0.8990 H   0  0  0  0  0  0  0  0  0  0  0  0
   18.9700  -10.3000   -0.1640 H   0  0  0  0  0  0  0  0  0  0  0  0
   18.3040  -10.0370    1.4660 H   0  0  0  0  0  0  0  0  0  0  0  0
   17.6910  -12.1010   -1.0370 H   0  0  0  0  0  0  0  0  0  0  0  0
   15.5350  -13.0390   -1.7610 H   0  0  0  0  0  0  0  0  0  0  0  0
   11.9360  -10.9550   -0.0040 H   0  0  0  0  0  0  0  0  0  0  0  0
   10.5020  -12.3920   -2.0980 H   0  0  0  0  0  0  0  0  0  0  0  0
   10.5590  -13.2990   -0.5680 H   0  0  0  0  0  0  0  0  0  0  0  0
    9.7050  -11.3100    0.6510 H   0  0  0  0  0  0  0  0  0  0  0  0
    9.6620  -10.3900   -0.8720 H   0  0  0  0  0  0  0  0  0  0  0  0
    8.0170  -11.9950   -1.7970 H   0  0  0  0  0  0  0  0  0  0  0  0
    8.0600  -12.9180   -0.2760 H   0  0  0  0  0  0  0  0  0  0  0  0
    7.2070  -10.9430    0.9500 H   0  0  0  0  0  0  0  0  0  0  0  0
    7.1700  -10.0150   -0.5680 H   0  0  0  0  0  0  0  0  0  0  0  0
    5.5840  -12.5560    0.0090 H   0  0  0  0  0  0  0  0  0  0  0  0
    5.5520  -11.6380   -1.5160 H   0  0  0  0  0  0  0  0  0  0  0  0
    4.6830   -9.6570   -0.3000 H   0  0  0  0  0  0  0  0  0  0  0  0
    4.7020  -10.5860    1.2190 H   0  0  0  0  0  0  0  0  0  0  0  0
    3.0920  -12.1980    0.2650 H   0  0  0  0  0  0  0  0  0  0  0  0
    3.0860  -11.2970   -1.2700 H   0  0  0  0  0  0  0  0  0  0  0  0
    2.1630   -9.3050   -0.0850 H   0  0  0  0  0  0  0  0  0  0  0  0
    2.1450  -10.2270    1.4370 H   0  0  0  0  0  0  0  0  0  0  0  0
    0.8990  -11.7920   -0.6140 H   0  0  0  0  0  0  0  0  0  0  0  0
    0.1990   -8.3850    0.4360 H   0  0  0  0  0  0  0  0  0  0  0  0
   -2.0580   -7.5690    1.0250 H   0  0  0  0  0  0  0  0  0  0  0  0
   -3.9570   -9.1570    1.2190 H   0  0  0  0  0  0  0  0  0  0  0  0
   -4.5450  -14.4340    0.4140 H   0  0  0  0  0  0  0  0  0  0  0  0
   -1.7800  -15.3910    1.3760 H   0  0  0  0  0  0  0  0  0  0  0  0
   -3.1860  -15.0490    2.4120 H   0  0  0  0  0  0  0  0  0  0  0  0
   -4.4980  -16.8170    1.1880 H   0  0  0  0  0  0  0  0  0  0  0  0
   -3.0350  -17.5050    1.9330 H   0  0  0  0  0  0  0  0  0  0  0  0
   -2.6360  -16.7120   -2.1420 H   0  0  0  0  0  0  0  0  0  0  0  0
   13.4890   -9.7630    0.1020 H   0  0  0  0  0  0  0  0  0  0  0  0
   15.6490   -8.8380    0.8330 H   0  0  0  0  0  0  0  0  0  0  0  0
  1  2  1  0  0  0  0
  1 51  1  0  0  0  0
  1 52  1  0  0  0  0
  1 53  1  0  0  0  0
  2  3  1  0  0  0  0
  3  4  1  0  0  0  0
  3 11  2  0  0  0  0
  4  5  2  0  0  0  0
  4 54  1  0  0  0  0
  5  6  1  0  0  0  0
  5 55  1  0  0  0  0
  6  7  1  0  0  0  0
  6 10  2  0  0  0  0
  7  8  1  0  0  0  0
  7  9  2  0  0  0  0
 10 11  1  0  0  0  0
 10 56  1  0  0  0  0
 11 12  1  0  0  0  0
 12 13  1  0  0  0  0
 13 14  1  0  0  0  0
 13 57  1  0  0  0  0
 13 58  1  0  0  0  0
 14 15  1  0  0  0  0
 14 50  2  0  0  0  0
 15 16  2  0  0  0  0
 15 59  1  0  0  0  0
 16 17  1  0  0  0  0
 16 60  1  0  0  0  0
 17 18  1  0  0  0  0
 17 49  2  0  0  0  0
 18 19  2  0  0  0  0
 18 20  1  0  0  0  0
 20 21  1  0  0  0  0
 20 61  1  0  0  0  0
 21 22  1  0  0  0  0
 21 62  1  0  0  0  0
 21 63  1  0  0  0  0
 22 23  1  0  0  0  0
 22 64  1  0  0  0  0
 22 65  1  0  0  0  0
 23 24  1  0  0  0  0
 23 66  1  0  0  0  0
 23 67  1  0  0  0  0
 24 25  1  0  0  0  0
 24 68  1  0  0  0  0
 24 69  1  0  0  0  0
 25 26  1  0  0  0  0
 25 70  1  0  0  0  0
 25 71  1  0  0  0  0
 26 27  1  0  0  0  0
 26 72  1  0  0  0  0
 26 73  1  0  0  0  0
 27 28  1  0  0  0  0
 27 74  1  0  0  0  0
 27 75  1  0  0  0  0
 28 29  1  0  0  0  0
 28 76  1  0  0  0  0
 28 77  1  0  0  0  0
 29 30  1  0  0  0  0
 29 78  1  0  0  0  0
 30 31  1  0  0  0  0
 30 35  2  0  0  0  0
 31 32  2  0  0  0  0
 31 79  1  0  0  0  0
 32 33  1  0  0  0  0
 32 80  1  0  0  0  0
 33 34  2  0  0  0  0
 33 81  1  0  0  0  0
 34 35  1  0  0  0  0
 34 47  1  0  0  0  0
 35 36  1  0  0  0  0
 36 37  2  0  0  0  0
 36 38  1  0  0  0  0
 38 39  1  0  0  0  0
 38 47  1  0  0  0  0
 39 40  1  0  0  0  0
 39 45  1  0  0  0  0
 39 82  1  0  0  0  0
 40 41  1  0  0  0  0
 40 83  1  0  0  0  0
 40 84  1  0  0  0  0
 41 42  1  0  0  0  0
 41 85  1  0  0  0  0
 41 86  1  0  0  0  0
 42 43  2  0  0  0  0
 42 44  1  0  0  0  0
 44 45  1  0  0  0  0
 44 87  1  0  0  0  0
 45 46  2  0  0  0  0
 47 48  2  0  0  0  0
 49 50  1  0  0  0  0
 49 88  1  0  0  0  0
 50 89  1  0  0  0  0
M  CHG  1   8  -1
M  END
>  <Compound ID>
4036

>  <Uniprot>
Q9BY41

>  <Target>
HDAC8

>  <E3 ligase>
CRBN

>  <Article DOI>
10.1016/j.bioorg.2023.106546

>  <Molecular Weight>
684.74597

>  <Exact Mass>
684.27954

>  <XLogP3>
5.1100001

>  <Heavy Atom Count>
50

>  <Ring Count>
5

>  <Hydrogen Bond Acceptor Count>
9

>  <Hydrogen Bond Donor Count>
4

>  <Rotatable Bond Count>
17

>  <Topological Polar Surface Area>
180.44

>  <Molecular Formula>
C37H40N4O9

>  <InChI>
InChI=1S/C37H40N4O9/c1-49-29-17-15-25(37(47)48)21-30(29)50-22-23-11-13-24(14-12-23)33(43)39-20-7-5-3-2-4-6-19-38-27-10-8-9-26-32(27)36(46)41(35(26)45)28-16-18-31(42)40-34(28)44/h8-15,17,21,28,38H,2-7,16,18-20,22H2,1H3,(H,39,43)(H,47,48)(H,40,42,44)

>  <InChI Key>
NIPLZZSOGWKOEY-UHFFFAOYSA-N

>  <DC50 (nM)>
1.8/4.7

>  <Assay (DC50/Dmax)>
Degradation of HDAC8 in MDA-MB-231/T-cell leukemia Jurkat cells after 24 h treatment

>  <IC50 (nM, Protac to Target)>
1600

>  <Assay (Protac to Target, IC50)>
Inhibition of HDAC8

>  <GI50 (nM, Cellular activities)>
2400

>  <Assay (Cellular activities, GI50)>
Inhibition of cell proliferation in Jurkat cells

>  <Dmax (%)>
97/95

>  <Percent degradation (%)>
94/62

>  <Assay (Percent degradation)>
% HDAC8 degradation in MDA-MB-231 cells after 24 h treatment at 1000/10000 nM

$$$$
4600
  MOE2018           3D

 81 87  0  0  1  0  0  0  0  0999 V2000
    4.6330   -4.5860    3.4020 O   0  0  0  0  0  0  0  0  0  0  0  0
    4.0740   -5.4810    2.8240 C   0  0  0  0  0  0  0  0  0  0  0  0
    3.0650   -5.2580    1.7120 C   0  0  0  0  0  0  0  0  0  0  0  0
    3.2820   -6.3600    0.6480 C   0  0  0  0  0  0  0  0  0  0  0  0
    3.0220   -7.7220    1.3440 C   0  0  1  0  0  0  0  0  0  0  0  0
    3.3260   -8.7870    0.3780 N   0  0  0  0  0  0  0  0  0  0  0  0
    2.3880   -9.6800   -0.1050 C   0  0  0  0  0  0  0  0  0  0  0  0
    1.2010   -9.5830    0.1650 O   0  0  0  0  0  0  0  0  0  0  0  0
    3.0690  -10.6430   -0.9380 C   0  0  0  0  0  0  0  0  0  0  0  0
    2.6000  -11.7380   -1.6640 C   0  0  0  0  0  0  0  0  0  0  0  0
    3.5150  -12.4980   -2.4000 C   0  0  0  0  0  0  0  0  0  0  0  0
    4.8720  -12.1650   -2.4110 C   0  0  0  0  0  0  0  0  0  0  0  0
    5.3280  -11.0580   -1.6800 C   0  0  0  0  0  0  0  0  0  0  0  0
    6.6690  -10.6980   -1.6600 N   0  0  0  0  0  0  0  0  0  0  0  0
    7.5000  -10.8210   -2.8660 C   0  0  0  0  0  0  0  0  0  0  0  0
    8.6370   -9.8350   -2.6710 C   0  0  0  0  0  0  0  0  0  0  0  0
    9.3500   -9.6240   -1.5480 C   0  0  0  0  0  0  0  0  0  0  0  0
   10.2200   -8.6650   -1.8590 N   0  0  0  0  0  0  0  0  0  0  0  0
   11.2130   -8.0700   -0.9740 C   0  0  0  0  0  0  0  0  0  0  0  0
   12.5430   -8.8090   -1.2290 C   0  0  0  0  0  0  0  0  0  0  0  0
   13.5650   -8.2190   -0.2540 C   0  0  0  0  0  0  0  0  0  0  0  0
   14.8100   -8.8610   -0.5880 O   0  0  0  0  0  0  0  0  0  0  0  0
   16.0180   -8.5690    0.0090 C   0  0  0  0  0  0  0  0  0  0  0  0
   16.0990   -7.8450    1.2000 C   0  0  0  0  0  0  0  0  0  0  0  0
   17.3480   -7.5710    1.7490 C   0  0  0  0  0  0  0  0  0  0  0  0
   18.5140   -8.0130    1.1180 C   0  0  0  0  0  0  0  0  0  0  0  0
   19.8720   -7.6780    1.7190 C   0  0  0  0  0  0  0  0  0  0  0  0
   20.6100   -8.9320    1.8770 N   0  0  0  0  0  0  0  0  0  0  0  0
   20.3390   -9.8980    2.8230 C   0  0  0  0  0  0  0  0  0  0  0  0
   21.2290  -10.9140    2.6750 C   0  0  0  0  0  0  0  0  0  0  0  0
   22.0920  -10.5900    1.6080 C   0  0  0  0  0  0  0  0  0  0  0  0
   23.1780  -11.2500    1.0090 C   0  0  0  0  0  0  0  0  0  0  0  0
   23.8360  -10.6520   -0.0520 C   0  0  0  0  0  0  0  0  0  0  0  0
   23.4370   -9.3720   -0.5480 C   0  0  0  0  0  0  0  0  0  0  0  0
   24.1400   -8.7250   -1.6590 C   0  0  0  0  0  0  0  0  0  0  0  0
   23.6690   -7.7950   -2.3210 O   0  0  0  0  0  0  0  0  0  0  0  0
   25.4020   -9.1330   -2.0010 N   0  0  0  0  0  0  0  0  0  0  0  0
   26.0790   -8.5180   -3.0720 O   0  5  0  0  0  0  0  0  0  0  0  0
   22.3480   -8.7280    0.0420 C   0  0  0  0  0  0  0  0  0  0  0  0
   21.6980   -9.3510    1.1160 C   0  0  0  0  0  0  0  0  0  0  0  0
   18.4150   -8.7390   -0.0720 C   0  0  0  0  0  0  0  0  0  0  0  0
   17.1690   -9.0220   -0.6240 C   0  0  0  0  0  0  0  0  0  0  0  0
   10.0630   -8.3030   -3.1390 N   0  0  0  0  0  0  0  0  0  0  0  0
    9.0890   -9.0200   -3.6470 N   0  0  0  0  0  0  0  0  0  0  0  0
    4.4080  -10.3060   -0.9400 C   0  0  0  0  0  0  0  0  0  0  0  0
    4.5740   -9.1400   -0.1190 C   0  0  0  0  0  0  0  0  0  0  0  0
    5.5860   -8.4890    0.1240 O   0  0  0  0  0  0  0  0  0  0  0  0
    3.9150   -7.8580    2.5890 C   0  0  0  0  0  0  0  0  0  0  0  0
    4.2220   -8.9130    3.0980 O   0  0  0  0  0  0  0  0  0  0  0  0
    4.3720   -6.7430    3.2240 N   0  0  0  0  0  0  0  0  0  0  0  0
    2.0530   -5.3220    2.1110 H   0  0  0  0  0  0  0  0  0  0  0  0
    3.2170   -4.2760    1.2650 H   0  0  0  0  0  0  0  0  0  0  0  0
    4.3040   -6.3210    0.2720 H   0  0  0  0  0  0  0  0  0  0  0  0
    2.5850   -6.2240   -0.1790 H   0  0  0  0  0  0  0  0  0  0  0  0
    1.9830   -7.7920    1.6670 H   0  0  0  0  0  0  0  0  0  0  0  0
    1.5510  -11.9940   -1.6580 H   0  0  0  0  0  0  0  0  0  0  0  0
    3.1690  -13.3510   -2.9650 H   0  0  0  0  0  0  0  0  0  0  0  0
    5.5700  -12.7600   -2.9820 H   0  0  0  0  0  0  0  0  0  0  0  0
    7.0780  -10.3470   -0.8060 H   0  0  0  0  0  0  0  0  0  0  0  0
    7.8870  -11.8360   -2.9610 H   0  0  0  0  0  0  0  0  0  0  0  0
    6.9230  -10.5670   -3.7550 H   0  0  0  0  0  0  0  0  0  0  0  0
    9.2400  -10.1260   -0.5980 H   0  0  0  0  0  0  0  0  0  0  0  0
   11.3250   -7.0090   -1.1970 H   0  0  0  0  0  0  0  0  0  0  0  0
   10.9100   -8.1930    0.0660 H   0  0  0  0  0  0  0  0  0  0  0  0
   12.8700   -8.6520   -2.2570 H   0  0  0  0  0  0  0  0  0  0  0  0
   12.4210   -9.8770   -1.0460 H   0  0  0  0  0  0  0  0  0  0  0  0
   13.2840   -8.4400    0.7760 H   0  0  0  0  0  0  0  0  0  0  0  0
   13.6430   -7.1400   -0.3860 H   0  0  0  0  0  0  0  0  0  0  0  0
   15.2010   -7.5010    1.6910 H   0  0  0  0  0  0  0  0  0  0  0  0
   17.4170   -7.0120    2.6710 H   0  0  0  0  0  0  0  0  0  0  0  0
   19.7410   -7.2000    2.6900 H   0  0  0  0  0  0  0  0  0  0  0  0
   20.4170   -7.0080    1.0540 H   0  0  0  0  0  0  0  0  0  0  0  0
   19.5500   -9.8540    3.5590 H   0  0  0  0  0  0  0  0  0  0  0  0
   21.2690  -11.8140    3.2710 H   0  0  0  0  0  0  0  0  0  0  0  0
   23.4970  -12.2160    1.3730 H   0  0  0  0  0  0  0  0  0  0  0  0
   24.6680  -11.1630   -0.5140 H   0  0  0  0  0  0  0  0  0  0  0  0
   25.8480   -9.8770   -1.4840 H   0  0  0  0  0  0  0  0  0  0  0  0
   22.0130   -7.7680   -0.3220 H   0  0  0  0  0  0  0  0  0  0  0  0
   19.3110   -9.0830   -0.5670 H   0  0  0  0  0  0  0  0  0  0  0  0
   17.0970   -9.5910   -1.5390 H   0  0  0  0  0  0  0  0  0  0  0  0
    4.9630   -6.8620    4.0340 H   0  0  0  0  0  0  0  0  0  0  0  0
  1  2  2  0  0  0  0
  2  3  1  0  0  0  0
  2 50  1  0  0  0  0
  3  4  1  0  0  0  0
  3 51  1  0  0  0  0
  3 52  1  0  0  0  0
  4  5  1  0  0  0  0
  4 53  1  0  0  0  0
  4 54  1  0  0  0  0
  5  6  1  0  0  0  0
  5 48  1  0  0  0  0
  5 55  1  0  0  0  0
  6  7  1  0  0  0  0
  6 46  1  0  0  0  0
  7  8  2  0  0  0  0
  7  9  1  0  0  0  0
  9 10  1  0  0  0  0
  9 45  2  0  0  0  0
 10 11  2  0  0  0  0
 10 56  1  0  0  0  0
 11 12  1  0  0  0  0
 11 57  1  0  0  0  0
 12 13  2  0  0  0  0
 12 58  1  0  0  0  0
 13 14  1  0  0  0  0
 13 45  1  0  0  0  0
 14 15  1  0  0  0  0
 14 59  1  0  0  0  0
 15 16  1  0  0  0  0
 15 60  1  0  0  0  0
 15 61  1  0  0  0  0
 16 17  2  0  0  0  0
 16 44  1  0  0  0  0
 17 18  1  0  0  0  0
 17 62  1  0  0  0  0
 18 19  1  0  0  0  0
 18 43  1  0  0  0  0
 19 20  1  0  0  0  0
 19 63  1  0  0  0  0
 19 64  1  0  0  0  0
 20 21  1  0  0  0  0
 20 65  1  0  0  0  0
 20 66  1  0  0  0  0
 21 22  1  0  0  0  0
 21 67  1  0  0  0  0
 21 68  1  0  0  0  0
 22 23  1  0  0  0  0
 23 24  1  0  0  0  0
 23 42  2  0  0  0  0
 24 25  2  0  0  0  0
 24 69  1  0  0  0  0
 25 26  1  0  0  0  0
 25 70  1  0  0  0  0
 26 27  1  0  0  0  0
 26 41  2  0  0  0  0
 27 28  1  0  0  0  0
 27 71  1  0  0  0  0
 27 72  1  0  0  0  0
 28 29  1  0  0  0  0
 28 40  1  0  0  0  0
 29 30  2  0  0  0  0
 29 73  1  0  0  0  0
 30 31  1  0  0  0  0
 30 74  1  0  0  0  0
 31 32  1  0  0  0  0
 31 40  2  0  0  0  0
 32 33  2  0  0  0  0
 32 75  1  0  0  0  0
 33 34  1  0  0  0  0
 33 76  1  0  0  0  0
 34 35  1  0  0  0  0
 34 39  2  0  0  0  0
 35 36  2  0  0  0  0
 35 37  1  0  0  0  0
 37 38  1  0  0  0  0
 37 77  1  0  0  0  0
 39 40  1  0  0  0  0
 39 78  1  0  0  0  0
 41 42  1  0  0  0  0
 41 79  1  0  0  0  0
 42 80  1  0  0  0  0
 43 44  2  0  0  0  0
 45 46  1  0  0  0  0
 46 47  2  0  0  0  0
 48 49  2  0  0  0  0
 48 50  1  0  0  0  0
 50 81  1  0  0  0  0
M  CHG  1  38  -1
M  END
>  <Compound ID>
4600

>  <Uniprot>
Q9BY41

>  <Target>
HDAC8

>  <E3 ligase>
CRBN

>  <Article DOI>
10.1021/acs.jmedchem.2c00739

>  <Molecular Weight>
676.69

>  <Exact Mass>
676.23938

>  <XLogP3>
2.3800001

>  <Heavy Atom Count>
50

>  <Ring Count>
7

>  <Hydrogen Bond Acceptor Count>
12

>  <Hydrogen Bond Donor Count>
4

>  <Rotatable Bond Count>
12

>  <Topological Polar Surface Area>
189.78

>  <Molecular Formula>
C35H32N8O7

>  <InChI>
InChI=1S/C35H32N8O7/c44-30-12-11-28(33(46)37-30)43-34(47)26-3-1-4-27(31(26)35(43)48)36-18-24-20-42(40-38-24)14-2-16-50-25-9-5-21(6-10-25)19-41-15-13-22-7-8-23(17-29(22)41)32(45)39-49/h1,3-10,13,15,17,20,28,36,49H,2,11-12,14,16,18-19H2,(H,39,45)(H,37,44,46)

>  <InChI Key>
JBKWGNZGFRXEHI-UHFFFAOYSA-N

>  <Percent degradation (%)>
25.6/69.4

>  <Assay (Percent degradation)>
% HDAC8 protein degradation in A549 cells at 200/2000 nM for 20 h

$$$$
4601
  MOE2018           3D

 84 90  0  0  1  0  0  0  0  0999 V2000
    2.2940   -5.0780    3.9240 O   0  0  0  0  0  0  0  0  0  0  0  0
    1.6100   -5.7620    3.2090 C   0  0  0  0  0  0  0  0  0  0  0  0
    0.8340   -5.2200    2.0230 C   0  0  0  0  0  0  0  0  0  0  0  0
    0.9150   -6.2660    0.8870 C   0  0  0  0  0  0  0  0  0  0  0  0
    0.2450   -7.5610    1.4160 C   0  0  1  0  0  0  0  0  0  0  0  0
    0.4070   -8.6000    0.3890 N   0  0  0  0  0  0  0  0  0  0  0  0
   -0.6450   -9.1750   -0.2990 C   0  0  0  0  0  0  0  0  0  0  0  0
   -1.7960   -8.7920   -0.1610 O   0  0  0  0  0  0  0  0  0  0  0  0
   -0.1120  -10.2100   -1.1530 C   0  0  0  0  0  0  0  0  0  0  0  0
   -0.7310  -11.0790   -2.0520 C   0  0  0  0  0  0  0  0  0  0  0  0
    0.0620  -11.9870   -2.7620 C   0  0  0  0  0  0  0  0  0  0  0  0
    1.4470  -12.0220   -2.5750 C   0  0  0  0  0  0  0  0  0  0  0  0
    2.0540  -11.1380   -1.6700 C   0  0  0  0  0  0  0  0  0  0  0  0
    3.4260  -11.1450   -1.4560 N   0  0  0  0  0  0  0  0  0  0  0  0
    4.3560  -11.3660   -2.5710 C   0  0  0  0  0  0  0  0  0  0  0  0
    5.6470  -10.6940   -2.1450 C   0  0  0  0  0  0  0  0  0  0  0  0
    6.2570  -10.7930   -0.9480 C   0  0  0  0  0  0  0  0  0  0  0  0
    7.3350  -10.0160   -1.0370 N   0  0  0  0  0  0  0  0  0  0  0  0
    8.3200   -9.7730    0.0100 C   0  0  0  0  0  0  0  0  0  0  0  0
    9.5980  -10.5430   -0.3910 C   0  0  0  0  0  0  0  0  0  0  0  0
   10.6150  -10.3340    0.7430 C   0  0  0  0  0  0  0  0  0  0  0  0
   11.9770  -10.9290    0.3770 C   0  0  0  0  0  0  0  0  0  0  0  0
   12.7910  -10.7130    1.5470 O   0  0  0  0  0  0  0  0  0  0  0  0
   14.1430  -10.9580    1.6280 C   0  0  0  0  0  0  0  0  0  0  0  0
   14.7320  -10.8410    2.8810 C   0  0  0  0  0  0  0  0  0  0  0  0
   16.0970  -11.0710    3.0240 C   0  0  0  0  0  0  0  0  0  0  0  0
   16.8790  -11.4160    1.9190 C   0  0  0  0  0  0  0  0  0  0  0  0
   18.3770  -11.6230    2.1250 C   0  0  0  0  0  0  0  0  0  0  0  0
   18.8440  -12.6840    1.2300 N   0  0  0  0  0  0  0  0  0  0  0  0
   18.7020  -14.0350    1.4640 C   0  0  0  0  0  0  0  0  0  0  0  0
   19.2690  -14.7160    0.4340 C   0  0  0  0  0  0  0  0  0  0  0  0
   19.7820  -13.7780   -0.4840 C   0  0  0  0  0  0  0  0  0  0  0  0
   20.4630  -13.8950   -1.7080 C   0  0  0  0  0  0  0  0  0  0  0  0
   20.8330  -12.7480   -2.3900 C   0  0  0  0  0  0  0  0  0  0  0  0
   20.5350  -11.4500   -1.8820 C   0  0  0  0  0  0  0  0  0  0  0  0
   20.9330  -10.2700   -2.6550 C   0  0  0  0  0  0  0  0  0  0  0  0
   21.7990  -10.2840   -3.5350 O   0  0  0  0  0  0  0  0  0  0  0  0
   20.3190   -9.0670   -2.4270 N   0  0  0  0  0  0  0  0  0  0  0  0
   20.7030   -7.9260   -3.1590 O   0  5  0  0  0  0  0  0  0  0  0  0
   19.8700  -11.3370   -0.6570 C   0  0  0  0  0  0  0  0  0  0  0  0
   19.5070  -12.5100    0.0180 C   0  0  0  0  0  0  0  0  0  0  0  0
   16.2720  -11.5250    0.6610 C   0  0  0  0  0  0  0  0  0  0  0  0
   14.9060  -11.3030    0.5130 C   0  0  0  0  0  0  0  0  0  0  0  0
    7.4000   -9.4640   -2.2570 N   0  0  0  0  0  0  0  0  0  0  0  0
    6.3640   -9.8790   -2.9460 N   0  0  0  0  0  0  0  0  0  0  0  0
    1.2540  -10.2360   -0.9590 C   0  0  0  0  0  0  0  0  0  0  0  0
    1.5870   -9.2230    0.0030 C   0  0  0  0  0  0  0  0  0  0  0  0
    2.6830   -8.8770    0.4320 O   0  0  0  0  0  0  0  0  0  0  0  0
    0.9060   -8.0000    2.7340 C   0  0  0  0  0  0  0  0  0  0  0  0
    0.8720   -9.1280    3.1720 O   0  0  0  0  0  0  0  0  0  0  0  0
    1.5370   -7.0820    3.5170 N   0  0  0  0  0  0  0  0  0  0  0  0
   -0.2070   -5.0570    2.3040 H   0  0  0  0  0  0  0  0  0  0  0  0
    1.2720   -4.2790    1.6920 H   0  0  0  0  0  0  0  0  0  0  0  0
    1.9560   -6.4610    0.6310 H   0  0  0  0  0  0  0  0  0  0  0  0
    0.3860   -5.9040    0.0060 H   0  0  0  0  0  0  0  0  0  0  0  0
   -0.8130   -7.3900    1.6150 H   0  0  0  0  0  0  0  0  0  0  0  0
   -1.8010  -11.0510   -2.1970 H   0  0  0  0  0  0  0  0  0  0  0  0
   -0.4000  -12.6680   -3.4610 H   0  0  0  0  0  0  0  0  0  0  0  0
    2.0490  -12.7290   -3.1270 H   0  0  0  0  0  0  0  0  0  0  0  0
    3.7880  -10.9970   -0.5250 H   0  0  0  0  0  0  0  0  0  0  0  0
    4.5140  -12.4320   -2.7320 H   0  0  0  0  0  0  0  0  0  0  0  0
    3.9720  -10.9130   -3.4850 H   0  0  0  0  0  0  0  0  0  0  0  0
    5.9400  -11.3780   -0.0970 H   0  0  0  0  0  0  0  0  0  0  0  0
    8.5330   -8.7070    0.0850 H   0  0  0  0  0  0  0  0  0  0  0  0
    7.9470  -10.1370    0.9670 H   0  0  0  0  0  0  0  0  0  0  0  0
    9.3770  -11.6040   -0.5060 H   0  0  0  0  0  0  0  0  0  0  0  0
    9.9940  -10.1510   -1.3280 H   0  0  0  0  0  0  0  0  0  0  0  0
   10.2460  -10.8190    1.6470 H   0  0  0  0  0  0  0  0  0  0  0  0
   10.7300   -9.2660    0.9250 H   0  0  0  0  0  0  0  0  0  0  0  0
   12.4010  -10.4180   -0.4870 H   0  0  0  0  0  0  0  0  0  0  0  0
   11.8870  -11.9940    0.1610 H   0  0  0  0  0  0  0  0  0  0  0  0
   14.1340  -10.5730    3.7390 H   0  0  0  0  0  0  0  0  0  0  0  0
   16.5560  -10.9820    3.9980 H   0  0  0  0  0  0  0  0  0  0  0  0
   18.5670  -11.9090    3.1600 H   0  0  0  0  0  0  0  0  0  0  0  0
   18.9070  -10.6970    1.9010 H   0  0  0  0  0  0  0  0  0  0  0  0
   18.2200  -14.4780    2.3230 H   0  0  0  0  0  0  0  0  0  0  0  0
   19.3180  -15.7900    0.3360 H   0  0  0  0  0  0  0  0  0  0  0  0
   20.6950  -14.8690   -2.1120 H   0  0  0  0  0  0  0  0  0  0  0  0
   21.3600  -12.8390   -3.3290 H   0  0  0  0  0  0  0  0  0  0  0  0
   19.5890   -8.9980   -1.7320 H   0  0  0  0  0  0  0  0  0  0  0  0
   19.6410  -10.3670   -0.2400 H   0  0  0  0  0  0  0  0  0  0  0  0
   16.8690  -11.7830   -0.2010 H   0  0  0  0  0  0  0  0  0  0  0  0
   14.4410  -11.3970   -0.4570 H   0  0  0  0  0  0  0  0  0  0  0  0
    1.9730   -7.4000    4.3710 H   0  0  0  0  0  0  0  0  0  0  0  0
  1  2  2  0  0  0  0
  2  3  1  0  0  0  0
  2 51  1  0  0  0  0
  3  4  1  0  0  0  0
  3 52  1  0  0  0  0
  3 53  1  0  0  0  0
  4  5  1  0  0  0  0
  4 54  1  0  0  0  0
  4 55  1  0  0  0  0
  5  6  1  0  0  0  0
  5 49  1  0  0  0  0
  5 56  1  0  0  0  0
  6  7  1  0  0  0  0
  6 47  1  0  0  0  0
  7  8  2  0  0  0  0
  7  9  1  0  0  0  0
  9 10  1  0  0  0  0
  9 46  2  0  0  0  0
 10 11  2  0  0  0  0
 10 57  1  0  0  0  0
 11 12  1  0  0  0  0
 11 58  1  0  0  0  0
 12 13  2  0  0  0  0
 12 59  1  0  0  0  0
 13 14  1  0  0  0  0
 13 46  1  0  0  0  0
 14 15  1  0  0  0  0
 14 60  1  0  0  0  0
 15 16  1  0  0  0  0
 15 61  1  0  0  0  0
 15 62  1  0  0  0  0
 16 17  2  0  0  0  0
 16 45  1  0  0  0  0
 17 18  1  0  0  0  0
 17 63  1  0  0  0  0
 18 19  1  0  0  0  0
 18 44  1  0  0  0  0
 19 20  1  0  0  0  0
 19 64  1  0  0  0  0
 19 65  1  0  0  0  0
 20 21  1  0  0  0  0
 20 66  1  0  0  0  0
 20 67  1  0  0  0  0
 21 22  1  0  0  0  0
 21 68  1  0  0  0  0
 21 69  1  0  0  0  0
 22 23  1  0  0  0  0
 22 70  1  0  0  0  0
 22 71  1  0  0  0  0
 23 24  1  0  0  0  0
 24 25  1  0  0  0  0
 24 43  2  0  0  0  0
 25 26  2  0  0  0  0
 25 72  1  0  0  0  0
 26 27  1  0  0  0  0
 26 73  1  0  0  0  0
 27 28  1  0  0  0  0
 27 42  2  0  0  0  0
 28 29  1  0  0  0  0
 28 74  1  0  0  0  0
 28 75  1  0  0  0  0
 29 30  1  0  0  0  0
 29 41  1  0  0  0  0
 30 31  2  0  0  0  0
 30 76  1  0  0  0  0
 31 32  1  0  0  0  0
 31 77  1  0  0  0  0
 32 33  1  0  0  0  0
 32 41  2  0  0  0  0
 33 34  2  0  0  0  0
 33 78  1  0  0  0  0
 34 35  1  0  0  0  0
 34 79  1  0  0  0  0
 35 36  1  0  0  0  0
 35 40  2  0  0  0  0
 36 37  2  0  0  0  0
 36 38  1  0  0  0  0
 38 39  1  0  0  0  0
 38 80  1  0  0  0  0
 40 41  1  0  0  0  0
 40 81  1  0  0  0  0
 42 43  1  0  0  0  0
 42 82  1  0  0  0  0
 43 83  1  0  0  0  0
 44 45  2  0  0  0  0
 46 47  1  0  0  0  0
 47 48  2  0  0  0  0
 49 50  2  0  0  0  0
 49 51  1  0  0  0  0
 51 84  1  0  0  0  0
M  CHG  1  39  -1
M  END
>  <Compound ID>
4601

>  <Uniprot>
Q9BY41

>  <Target>
HDAC8

>  <E3 ligase>
CRBN

>  <Article DOI>
10.1021/acs.jmedchem.2c00739

>  <Molecular Weight>
690.71698

>  <Exact Mass>
690.25507

>  <XLogP3>
2.73

>  <Heavy Atom Count>
51

>  <Ring Count>
7

>  <Hydrogen Bond Acceptor Count>
12

>  <Hydrogen Bond Donor Count>
4

>  <Rotatable Bond Count>
13

>  <Topological Polar Surface Area>
189.78

>  <Molecular Formula>
C36H34N8O7

>  <InChI>
InChI=1S/C36H34N8O7/c45-31-13-12-29(34(47)38-31)44-35(48)27-4-3-5-28(32(27)36(44)49)37-19-25-21-43(41-39-25)15-1-2-17-51-26-10-6-22(7-11-26)20-42-16-14-23-8-9-24(18-30(23)42)33(46)40-50/h3-11,14,16,18,21,29,37,50H,1-2,12-13,15,17,19-20H2,(H,40,46)(H,38,45,47)

>  <InChI Key>
SUEXREHSPDZBHX-UHFFFAOYSA-N

>  <DC50 (nM)>
470

>  <Assay (DC50/Dmax)>
Degradation of HDAC8 in A549 cells

>  <Dmax (%)>
90.21

>  <Percent degradation (%)>
30.6/83.6

>  <Assay (Percent degradation)>
% HDAC8 protein degradation in A549 cells at 200/2000 nM for 20 h

>  <IC50 (nM, Cellular activities)>
7110

>  <Assay (Cellular activities, IC50)>
Inhibition of cell proliferation of CCK-8 cells

$$$$
4602
  MOE2018           3D

 87 93  0  0  1  0  0  0  0  0999 V2000
    3.1000   13.3380    4.0110 O   0  0  0  0  0  0  0  0  0  0  0  0
    2.6060   12.4240    3.4030 C   0  0  0  0  0  0  0  0  0  0  0  0
    1.5480   12.6060    2.3310 C   0  0  0  0  0  0  0  0  0  0  0  0
    1.8370   11.5880    1.2030 C   0  0  0  0  0  0  0  0  0  0  0  0
    1.7290   10.1730    1.8290 C   0  0  1  0  0  0  0  0  0  0  0  0
    2.1120    9.1960    0.7990 N   0  0  0  0  0  0  0  0  0  0  0  0
    1.2530    8.2480    0.2780 C   0  0  0  0  0  0  0  0  0  0  0  0
    0.0680    8.2150    0.5710 O   0  0  0  0  0  0  0  0  0  0  0  0
    2.0050    7.4050   -0.6220 C   0  0  0  0  0  0  0  0  0  0  0  0
    1.6260    6.3150   -1.4060 C   0  0  0  0  0  0  0  0  0  0  0  0
    2.5930    5.6900   -2.2000 C   0  0  0  0  0  0  0  0  0  0  0  0
    3.9130    6.1510   -2.2100 C   0  0  0  0  0  0  0  0  0  0  0  0
    4.2770    7.2520   -1.4200 C   0  0  0  0  0  0  0  0  0  0  0  0
    5.5780    7.7370   -1.4020 N   0  0  0  0  0  0  0  0  0  0  0  0
    6.3830    7.7620   -2.6310 C   0  0  0  0  0  0  0  0  0  0  0  0
    7.3610    8.9080   -2.4550 C   0  0  0  0  0  0  0  0  0  0  0  0
    8.0400    9.2420   -1.3400 C   0  0  0  0  0  0  0  0  0  0  0  0
    8.7620   10.3100   -1.6760 N   0  0  0  0  0  0  0  0  0  0  0  0
    9.6790   11.0520   -0.8200 C   0  0  0  0  0  0  0  0  0  0  0  0
   11.0830   10.4530   -1.0550 C   0  0  0  0  0  0  0  0  0  0  0  0
   12.0630   11.2480   -0.1770 C   0  0  0  0  0  0  0  0  0  0  0  0
   13.4980   10.7440   -0.3880 C   0  0  0  0  0  0  0  0  0  0  0  0
   14.4900   11.5370    0.4660 C   0  0  0  0  0  0  0  0  0  0  0  0
   15.7850   10.9860    0.1470 O   0  0  0  0  0  0  0  0  0  0  0  0
   16.9780   11.4570    0.6490 C   0  0  0  0  0  0  0  0  0  0  0  0
   18.1460   10.8820    0.1600 C   0  0  0  0  0  0  0  0  0  0  0  0
   19.3790   11.3200    0.6320 C   0  0  0  0  0  0  0  0  0  0  0  0
   19.4480   12.3300    1.5940 C   0  0  0  0  0  0  0  0  0  0  0  0
   20.7950   12.8070    2.1090 C   0  0  0  0  0  0  0  0  0  0  0  0
   21.3280   13.7130    1.0920 N   0  0  0  0  0  0  0  0  0  0  0  0
   20.9160   15.0150    0.8990 C   0  0  0  0  0  0  0  0  0  0  0  0
   21.6220   15.5460   -0.1330 C   0  0  0  0  0  0  0  0  0  0  0  0
   22.5070   14.5600   -0.6140 C   0  0  0  0  0  0  0  0  0  0  0  0
   23.4560   14.5340   -1.6490 C   0  0  0  0  0  0  0  0  0  0  0  0
   24.1850   13.3790   -1.8760 C   0  0  0  0  0  0  0  0  0  0  0  0
   23.9950   12.2100   -1.0740 C   0  0  0  0  0  0  0  0  0  0  0  0
   24.7710   10.9860   -1.2960 C   0  0  0  0  0  0  0  0  0  0  0  0
   24.4870    9.8940   -0.7950 O   0  0  0  0  0  0  0  0  0  0  0  0
   25.8900   11.0150   -2.0860 N   0  0  0  0  0  0  0  0  0  0  0  0
   26.6360    9.8380   -2.3000 O   0  5  0  0  0  0  0  0  0  0  0  0
   23.0430   12.2400   -0.0540 C   0  0  0  0  0  0  0  0  0  0  0  0
   22.3170   13.4180    0.1580 C   0  0  0  0  0  0  0  0  0  0  0  0
   18.2680   12.9030    2.0750 C   0  0  0  0  0  0  0  0  0  0  0  0
   17.0310   12.4710    1.6070 C   0  0  0  0  0  0  0  0  0  0  0  0
    8.5480   10.6200   -2.9620 N   0  0  0  0  0  0  0  0  0  0  0  0
    7.6860    9.7600   -3.4490 N   0  0  0  0  0  0  0  0  0  0  0  0
    3.3060    7.8670   -0.6230 C   0  0  0  0  0  0  0  0  0  0  0  0
    3.3770    8.9960    0.2630 C   0  0  0  0  0  0  0  0  0  0  0  0
    4.3270    9.7260    0.5270 O   0  0  0  0  0  0  0  0  0  0  0  0
    2.6610   10.0580    3.0470 C   0  0  0  0  0  0  0  0  0  0  0  0
    3.0750    9.0120    3.4940 O   0  0  0  0  0  0  0  0  0  0  0  0
    3.0300   11.1770    3.7290 N   0  0  0  0  0  0  0  0  0  0  0  0
    0.5590   12.4230    2.7510 H   0  0  0  0  0  0  0  0  0  0  0  0
    1.5920   13.6210    1.9350 H   0  0  0  0  0  0  0  0  0  0  0  0
    2.8390   11.7450    0.8050 H   0  0  0  0  0  0  0  0  0  0  0  0
    1.1060   11.7000    0.4020 H   0  0  0  0  0  0  0  0  0  0  0  0
    0.7110    9.9850    2.1690 H   0  0  0  0  0  0  0  0  0  0  0  0
    0.6060    5.9610   -1.4000 H   0  0  0  0  0  0  0  0  0  0  0  0
    2.3180    4.8430   -2.8110 H   0  0  0  0  0  0  0  0  0  0  0  0
    4.6520    5.6600   -2.8260 H   0  0  0  0  0  0  0  0  0  0  0  0
    5.9740    8.0750   -0.5370 H   0  0  0  0  0  0  0  0  0  0  0  0
    6.9180    6.8210   -2.7540 H   0  0  0  0  0  0  0  0  0  0  0  0
    5.7470    7.9350   -3.4990 H   0  0  0  0  0  0  0  0  0  0  0  0
    8.0060    8.7490   -0.3800 H   0  0  0  0  0  0  0  0  0  0  0  0
    9.6710   12.1090   -1.0870 H   0  0  0  0  0  0  0  0  0  0  0  0
    9.3920   10.9390    0.2260 H   0  0  0  0  0  0  0  0  0  0  0  0
   11.0940    9.4010   -0.7700 H   0  0  0  0  0  0  0  0  0  0  0  0
   11.3600   10.5480   -2.1050 H   0  0  0  0  0  0  0  0  0  0  0  0
   11.7890   11.1240    0.8710 H   0  0  0  0  0  0  0  0  0  0  0  0
   12.0100   12.3030   -0.4440 H   0  0  0  0  0  0  0  0  0  0  0  0
   13.7640   10.8560   -1.4390 H   0  0  0  0  0  0  0  0  0  0  0  0
   13.5500    9.6910   -0.1100 H   0  0  0  0  0  0  0  0  0  0  0  0
   14.2700   11.4090    1.5260 H   0  0  0  0  0  0  0  0  0  0  0  0
   14.4520   12.5960    0.2120 H   0  0  0  0  0  0  0  0  0  0  0  0
   18.0960   10.0990   -0.5820 H   0  0  0  0  0  0  0  0  0  0  0  0
   20.2880   10.8770    0.2530 H   0  0  0  0  0  0  0  0  0  0  0  0
   21.4670   11.9600    2.2490 H   0  0  0  0  0  0  0  0  0  0  0  0
   20.6720   13.3330    3.0560 H   0  0  0  0  0  0  0  0  0  0  0  0
   20.1580   15.5270    1.4730 H   0  0  0  0  0  0  0  0  0  0  0  0
   21.5220   16.5500   -0.5180 H   0  0  0  0  0  0  0  0  0  0  0  0
   23.6160   15.4080   -2.2630 H   0  0  0  0  0  0  0  0  0  0  0  0
   24.9120   13.3600   -2.6750 H   0  0  0  0  0  0  0  0  0  0  0  0
   26.1810   11.8810   -2.5160 H   0  0  0  0  0  0  0  0  0  0  0  0
   22.8690   11.3690    0.5610 H   0  0  0  0  0  0  0  0  0  0  0  0
   18.3160   13.6870    2.8160 H   0  0  0  0  0  0  0  0  0  0  0  0
   16.1210   12.9160    1.9810 H   0  0  0  0  0  0  0  0  0  0  0  0
    3.6510   11.0740    4.5180 H   0  0  0  0  0  0  0  0  0  0  0  0
  1  2  2  0  0  0  0
  2  3  1  0  0  0  0
  2 52  1  0  0  0  0
  3  4  1  0  0  0  0
  3 53  1  0  0  0  0
  3 54  1  0  0  0  0
  4  5  1  0  0  0  0
  4 55  1  0  0  0  0
  4 56  1  0  0  0  0
  5  6  1  0  0  0  0
  5 50  1  0  0  0  0
  5 57  1  0  0  0  0
  6  7  1  0  0  0  0
  6 48  1  0  0  0  0
  7  8  2  0  0  0  0
  7  9  1  0  0  0  0
  9 10  1  0  0  0  0
  9 47  2  0  0  0  0
 10 11  2  0  0  0  0
 10 58  1  0  0  0  0
 11 12  1  0  0  0  0
 11 59  1  0  0  0  0
 12 13  2  0  0  0  0
 12 60  1  0  0  0  0
 13 14  1  0  0  0  0
 13 47  1  0  0  0  0
 14 15  1  0  0  0  0
 14 61  1  0  0  0  0
 15 16  1  0  0  0  0
 15 62  1  0  0  0  0
 15 63  1  0  0  0  0
 16 17  2  0  0  0  0
 16 46  1  0  0  0  0
 17 18  1  0  0  0  0
 17 64  1  0  0  0  0
 18 19  1  0  0  0  0
 18 45  1  0  0  0  0
 19 20  1  0  0  0  0
 19 65  1  0  0  0  0
 19 66  1  0  0  0  0
 20 21  1  0  0  0  0
 20 67  1  0  0  0  0
 20 68  1  0  0  0  0
 21 22  1  0  0  0  0
 21 69  1  0  0  0  0
 21 70  1  0  0  0  0
 22 23  1  0  0  0  0
 22 71  1  0  0  0  0
 22 72  1  0  0  0  0
 23 24  1  0  0  0  0
 23 73  1  0  0  0  0
 23 74  1  0  0  0  0
 24 25  1  0  0  0  0
 25 26  1  0  0  0  0
 25 44  2  0  0  0  0
 26 27  2  0  0  0  0
 26 75  1  0  0  0  0
 27 28  1  0  0  0  0
 27 76  1  0  0  0  0
 28 29  1  0  0  0  0
 28 43  2  0  0  0  0
 29 30  1  0  0  0  0
 29 77  1  0  0  0  0
 29 78  1  0  0  0  0
 30 31  1  0  0  0  0
 30 42  1  0  0  0  0
 31 32  2  0  0  0  0
 31 79  1  0  0  0  0
 32 33  1  0  0  0  0
 32 80  1  0  0  0  0
 33 34  1  0  0  0  0
 33 42  2  0  0  0  0
 34 35  2  0  0  0  0
 34 81  1  0  0  0  0
 35 36  1  0  0  0  0
 35 82  1  0  0  0  0
 36 37  1  0  0  0  0
 36 41  2  0  0  0  0
 37 38  2  0  0  0  0
 37 39  1  0  0  0  0
 39 40  1  0  0  0  0
 39 83  1  0  0  0  0
 41 42  1  0  0  0  0
 41 84  1  0  0  0  0
 43 44  1  0  0  0  0
 43 85  1  0  0  0  0
 44 86  1  0  0  0  0
 45 46  2  0  0  0  0
 47 48  1  0  0  0  0
 48 49  2  0  0  0  0
 50 51  2  0  0  0  0
 50 52  1  0  0  0  0
 52 87  1  0  0  0  0
M  CHG  1  40  -1
M  END
>  <Compound ID>
4602

>  <Uniprot>
Q9BY41

>  <Target>
HDAC8

>  <E3 ligase>
CRBN

>  <Article DOI>
10.1021/acs.jmedchem.2c00739

>  <Molecular Weight>
704.74402

>  <Exact Mass>
704.27069

>  <XLogP3>
3.0899999

>  <Heavy Atom Count>
52

>  <Ring Count>
7

>  <Hydrogen Bond Acceptor Count>
12

>  <Hydrogen Bond Donor Count>
4

>  <Rotatable Bond Count>
14

>  <Topological Polar Surface Area>
189.78

>  <Molecular Formula>
C37H36N8O7

>  <InChI>
InChI=1S/C37H36N8O7/c46-32-14-13-30(35(48)39-32)45-36(49)28-5-4-6-29(33(28)37(45)50)38-20-26-22-44(42-40-26)16-2-1-3-18-52-27-11-7-23(8-12-27)21-43-17-15-24-9-10-25(19-31(24)43)34(47)41-51/h4-12,15,17,19,22,30,38,51H,1-3,13-14,16,18,20-21H2,(H,41,47)(H,39,46,48)

>  <InChI Key>
VXKRNJLOBYGLJC-UHFFFAOYSA-N

>  <DC50 (nM)>
620

>  <Assay (DC50/Dmax)>
Degradation of HDAC8 in A549 cells

>  <Dmax (%)>
90.16

>  <Percent degradation (%)>
39.5/85.9

>  <Assay (Percent degradation)>
% HDAC8 protein degradation in A549 cells at 200/2000 nM for 20 h

>  <IC50 (nM, Cellular activities)>
12520

>  <Assay (Cellular activities, IC50)>
Inhibition of cell proliferation of CCK-8 cells

$$$$
4603
  MOE2018           3D

 90 96  0  0  1  0  0  0  0  0999 V2000
    5.8530   -9.3750   -5.1410 O   0  0  0  0  0  0  0  0  0  0  0  0
    5.5390   -8.6100   -4.2660 C   0  0  0  0  0  0  0  0  0  0  0  0
    4.5850   -8.9730   -3.1420 C   0  0  0  0  0  0  0  0  0  0  0  0
    5.0720   -8.2700   -1.8530 C   0  0  0  0  0  0  0  0  0  0  0  0
    5.0330   -6.7440   -2.1300 C   0  0  1  0  0  0  0  0  0  0  0  0
    5.5650   -6.0520   -0.9470 N   0  0  0  0  0  0  0  0  0  0  0  0
    4.8310   -5.1670   -0.1800 C   0  0  0  0  0  0  0  0  0  0  0  0
    3.6420   -4.9680   -0.3770 O   0  0  0  0  0  0  0  0  0  0  0  0
    5.7060   -4.6080    0.8230 C   0  0  0  0  0  0  0  0  0  0  0  0
    5.4730   -3.6870    1.8440 C   0  0  0  0  0  0  0  0  0  0  0  0
    6.5320   -3.3390    2.6890 C   0  0  0  0  0  0  0  0  0  0  0  0
    7.7980   -3.9060    2.5150 C   0  0  0  0  0  0  0  0  0  0  0  0
    8.0150   -4.8350    1.4860 C   0  0  0  0  0  0  0  0  0  0  0  0
    9.2610   -5.4170    1.2880 N   0  0  0  0  0  0  0  0  0  0  0  0
   10.0610   -5.8390    2.4450 C   0  0  0  0  0  0  0  0  0  0  0  0
   11.1430   -6.7350    1.8790 C   0  0  0  0  0  0  0  0  0  0  0  0
   12.0620   -6.4070    0.9510 C   0  0  0  0  0  0  0  0  0  0  0  0
   12.7920   -7.5070    0.7760 N   0  0  0  0  0  0  0  0  0  0  0  0
   13.9410   -7.6610   -0.1070 C   0  0  0  0  0  0  0  0  0  0  0  0
   15.1890   -7.4420    0.7740 C   0  0  0  0  0  0  0  0  0  0  0  0
   16.4220   -7.5450   -0.1380 C   0  0  0  0  0  0  0  0  0  0  0  0
   17.6980   -7.4170    0.7050 C   0  0  0  0  0  0  0  0  0  0  0  0
   18.9510   -7.4580   -0.1800 C   0  0  0  0  0  0  0  0  0  0  0  0
   20.2180   -7.3910    0.6760 C   0  0  0  0  0  0  0  0  0  0  0  0
   21.3090   -7.3510   -0.2670 O   0  0  0  0  0  0  0  0  0  0  0  0
   22.6350   -7.2210    0.0850 C   0  0  0  0  0  0  0  0  0  0  0  0
   23.0570   -7.2650    1.4150 C   0  0  0  0  0  0  0  0  0  0  0  0
   24.4090   -7.1170    1.7080 C   0  0  0  0  0  0  0  0  0  0  0  0
   25.3420   -6.9270    0.6840 C   0  0  0  0  0  0  0  0  0  0  0  0
   26.8110   -6.7390    1.0340 C   0  0  0  0  0  0  0  0  0  0  0  0
   27.5880   -7.6860    0.2330 N   0  0  0  0  0  0  0  0  0  0  0  0
   27.7160   -9.0310    0.5090 C   0  0  0  0  0  0  0  0  0  0  0  0
   28.5250   -9.5920   -0.4280 C   0  0  0  0  0  0  0  0  0  0  0  0
   28.9220   -8.5820   -1.3280 C   0  0  0  0  0  0  0  0  0  0  0  0
   29.7420   -8.5720   -2.4690 C   0  0  0  0  0  0  0  0  0  0  0  0
   29.9290   -7.3870   -3.1580 C   0  0  0  0  0  0  0  0  0  0  0  0
   29.3060   -6.1760   -2.7400 C   0  0  0  0  0  0  0  0  0  0  0  0
   29.5200   -4.9540   -3.5190 C   0  0  0  0  0  0  0  0  0  0  0  0
   30.4870   -4.7730   -4.2640 O   0  0  0  0  0  0  0  0  0  0  0  0
   28.6030   -3.9400   -3.4550 N   0  0  0  0  0  0  0  0  0  0  0  0
   28.8020   -2.7580   -4.1950 O   0  5  0  0  0  0  0  0  0  0  0  0
   28.5050   -6.1840   -1.5940 C   0  0  0  0  0  0  0  0  0  0  0  0
   28.3270   -7.3950   -0.9110 C   0  0  0  0  0  0  0  0  0  0  0  0
   24.9020   -6.8900   -0.6430 C   0  0  0  0  0  0  0  0  0  0  0  0
   23.5520   -7.0400   -0.9430 C   0  0  0  0  0  0  0  0  0  0  0  0
   12.3440   -8.4850    1.5760 N   0  0  0  0  0  0  0  0  0  0  0  0
   11.3270   -8.0170    2.2590 N   0  0  0  0  0  0  0  0  0  0  0  0
    6.9530   -5.1710    0.6380 C   0  0  0  0  0  0  0  0  0  0  0  0
    6.8700   -6.0780   -0.4730 C   0  0  0  0  0  0  0  0  0  0  0  0
    7.7290   -6.8040   -0.9580 O   0  0  0  0  0  0  0  0  0  0  0  0
    5.8780   -6.4150   -3.3720 C   0  0  0  0  0  0  0  0  0  0  0  0
    6.3690   -5.3310   -3.5980 O   0  0  0  0  0  0  0  0  0  0  0  0
    6.0640   -7.3590   -4.3340 N   0  0  0  0  0  0  0  0  0  0  0  0
    3.5780   -8.6360   -3.3890 H   0  0  0  0  0  0  0  0  0  0  0  0
    4.5810  -10.0530   -2.9950 H   0  0  0  0  0  0  0  0  0  0  0  0
    6.0890   -8.5820   -1.6170 H   0  0  0  0  0  0  0  0  0  0  0  0
    4.4140   -8.5170   -1.0200 H   0  0  0  0  0  0  0  0  0  0  0  0
    4.0110   -6.4180   -2.3220 H   0  0  0  0  0  0  0  0  0  0  0  0
    4.4940   -3.2510    1.9800 H   0  0  0  0  0  0  0  0  0  0  0  0
    6.3700   -2.6250    3.4830 H   0  0  0  0  0  0  0  0  0  0  0  0
    8.6090   -3.6290    3.1720 H   0  0  0  0  0  0  0  0  0  0  0  0
    9.6150   -5.5490    0.3520 H   0  0  0  0  0  0  0  0  0  0  0  0
   10.5020   -4.9740    2.9400 H   0  0  0  0  0  0  0  0  0  0  0  0
    9.4440   -6.3880    3.1560 H   0  0  0  0  0  0  0  0  0  0  0  0
   12.1820   -5.4550    0.4550 H   0  0  0  0  0  0  0  0  0  0  0  0
   13.9540   -8.6610   -0.5400 H   0  0  0  0  0  0  0  0  0  0  0  0
   13.9070   -6.9200   -0.9060 H   0  0  0  0  0  0  0  0  0  0  0  0
   15.1500   -6.4560    1.2370 H   0  0  0  0  0  0  0  0  0  0  0  0
   15.2350   -8.2060    1.5500 H   0  0  0  0  0  0  0  0  0  0  0  0
   16.4180   -8.5090   -0.6460 H   0  0  0  0  0  0  0  0  0  0  0  0
   16.3940   -6.7450   -0.8780 H   0  0  0  0  0  0  0  0  0  0  0  0
   17.7380   -8.2410    1.4170 H   0  0  0  0  0  0  0  0  0  0  0  0
   17.6740   -6.4710    1.2450 H   0  0  0  0  0  0  0  0  0  0  0  0
   18.9350   -6.6090   -0.8630 H   0  0  0  0  0  0  0  0  0  0  0  0
   18.9550   -8.3850   -0.7530 H   0  0  0  0  0  0  0  0  0  0  0  0
   20.2960   -8.2720    1.3140 H   0  0  0  0  0  0  0  0  0  0  0  0
   20.2140   -6.4940    1.2950 H   0  0  0  0  0  0  0  0  0  0  0  0
   22.3400   -7.4130    2.2090 H   0  0  0  0  0  0  0  0  0  0  0  0
   24.7410   -7.1490    2.7350 H   0  0  0  0  0  0  0  0  0  0  0  0
   26.9670   -6.9350    2.0950 H   0  0  0  0  0  0  0  0  0  0  0  0
   27.1190   -5.7190    0.8040 H   0  0  0  0  0  0  0  0  0  0  0  0
   27.2510   -9.5520    1.3330 H   0  0  0  0  0  0  0  0  0  0  0  0
   28.8140  -10.6320   -0.4750 H   0  0  0  0  0  0  0  0  0  0  0  0
   30.2210   -9.4800   -2.8050 H   0  0  0  0  0  0  0  0  0  0  0  0
   30.5620   -7.3800   -4.0330 H   0  0  0  0  0  0  0  0  0  0  0  0
   27.7820   -4.0390   -2.8760 H   0  0  0  0  0  0  0  0  0  0  0  0
   28.0340   -5.2780   -1.2430 H   0  0  0  0  0  0  0  0  0  0  0  0
   25.6150   -6.7440   -1.4410 H   0  0  0  0  0  0  0  0  0  0  0  0
   23.2180   -7.0160   -1.9700 H   0  0  0  0  0  0  0  0  0  0  0  0
    6.6210   -7.1170   -5.1410 H   0  0  0  0  0  0  0  0  0  0  0  0
  1  2  2  0  0  0  0
  2  3  1  0  0  0  0
  2 53  1  0  0  0  0
  3  4  1  0  0  0  0
  3 54  1  0  0  0  0
  3 55  1  0  0  0  0
  4  5  1  0  0  0  0
  4 56  1  0  0  0  0
  4 57  1  0  0  0  0
  5  6  1  0  0  0  0
  5 51  1  0  0  0  0
  5 58  1  0  0  0  0
  6  7  1  0  0  0  0
  6 49  1  0  0  0  0
  7  8  2  0  0  0  0
  7  9  1  0  0  0  0
  9 10  1  0  0  0  0
  9 48  2  0  0  0  0
 10 11  2  0  0  0  0
 10 59  1  0  0  0  0
 11 12  1  0  0  0  0
 11 60  1  0  0  0  0
 12 13  2  0  0  0  0
 12 61  1  0  0  0  0
 13 14  1  0  0  0  0
 13 48  1  0  0  0  0
 14 15  1  0  0  0  0
 14 62  1  0  0  0  0
 15 16  1  0  0  0  0
 15 63  1  0  0  0  0
 15 64  1  0  0  0  0
 16 17  2  0  0  0  0
 16 47  1  0  0  0  0
 17 18  1  0  0  0  0
 17 65  1  0  0  0  0
 18 19  1  0  0  0  0
 18 46  1  0  0  0  0
 19 20  1  0  0  0  0
 19 66  1  0  0  0  0
 19 67  1  0  0  0  0
 20 21  1  0  0  0  0
 20 68  1  0  0  0  0
 20 69  1  0  0  0  0
 21 22  1  0  0  0  0
 21 70  1  0  0  0  0
 21 71  1  0  0  0  0
 22 23  1  0  0  0  0
 22 72  1  0  0  0  0
 22 73  1  0  0  0  0
 23 24  1  0  0  0  0
 23 74  1  0  0  0  0
 23 75  1  0  0  0  0
 24 25  1  0  0  0  0
 24 76  1  0  0  0  0
 24 77  1  0  0  0  0
 25 26  1  0  0  0  0
 26 27  1  0  0  0  0
 26 45  2  0  0  0  0
 27 28  2  0  0  0  0
 27 78  1  0  0  0  0
 28 29  1  0  0  0  0
 28 79  1  0  0  0  0
 29 30  1  0  0  0  0
 29 44  2  0  0  0  0
 30 31  1  0  0  0  0
 30 80  1  0  0  0  0
 30 81  1  0  0  0  0
 31 32  1  0  0  0  0
 31 43  1  0  0  0  0
 32 33  2  0  0  0  0
 32 82  1  0  0  0  0
 33 34  1  0  0  0  0
 33 83  1  0  0  0  0
 34 35  1  0  0  0  0
 34 43  2  0  0  0  0
 35 36  2  0  0  0  0
 35 84  1  0  0  0  0
 36 37  1  0  0  0  0
 36 85  1  0  0  0  0
 37 38  1  0  0  0  0
 37 42  2  0  0  0  0
 38 39  2  0  0  0  0
 38 40  1  0  0  0  0
 40 41  1  0  0  0  0
 40 86  1  0  0  0  0
 42 43  1  0  0  0  0
 42 87  1  0  0  0  0
 44 45  1  0  0  0  0
 44 88  1  0  0  0  0
 45 89  1  0  0  0  0
 46 47  2  0  0  0  0
 48 49  1  0  0  0  0
 49 50  2  0  0  0  0
 51 52  2  0  0  0  0
 51 53  1  0  0  0  0
 53 90  1  0  0  0  0
M  CHG  1  41  -1
M  END
>  <Compound ID>
4603

>  <Uniprot>
Q9BY41

>  <Target>
HDAC8

>  <E3 ligase>
CRBN

>  <Article DOI>
10.1021/acs.jmedchem.2c00739

>  <Molecular Weight>
718.771

>  <Exact Mass>
718.28632

>  <XLogP3>
3.45

>  <Heavy Atom Count>
53

>  <Ring Count>
7

>  <Hydrogen Bond Acceptor Count>
12

>  <Hydrogen Bond Donor Count>
4

>  <Rotatable Bond Count>
15

>  <Topological Polar Surface Area>
189.78

>  <Molecular Formula>
C38H38N8O7

>  <InChI>
InChI=1S/C38H38N8O7/c47-33-15-14-31(36(49)40-33)46-37(50)29-6-5-7-30(34(29)38(46)51)39-21-27-23-45(43-41-27)17-3-1-2-4-19-53-28-12-8-24(9-13-28)22-44-18-16-25-10-11-26(20-32(25)44)35(48)42-52/h5-13,16,18,20,23,31,39,52H,1-4,14-15,17,19,21-22H2,(H,42,48)(H,40,47,49)

>  <InChI Key>
AENOVYOTNHTODG-UHFFFAOYSA-N

>  <Percent degradation (%)>
28.5/59.7

>  <Assay (Percent degradation)>
% HDAC8 protein degradation in A549 cells at 200/2000 nM for 20 h

$$$$
4604
  MOE2018           3D

 85 91  0  0  1  0  0  0  0  0999 V2000
    1.2030   12.3920    3.9260 O   0  0  0  0  0  0  0  0  0  0  0  0
    1.1860   11.5560    3.0600 C   0  0  0  0  0  0  0  0  0  0  0  0
    0.3810   11.6950    1.7810 C   0  0  0  0  0  0  0  0  0  0  0  0
    1.1970   11.0650    0.6270 C   0  0  0  0  0  0  0  0  0  0  0  0
    1.4000    9.5700    0.9850 C   0  0  1  0  0  0  0  0  0  0  0  0
    2.2340    8.9580   -0.0600 N   0  0  0  0  0  0  0  0  0  0  0  0
    1.8100    7.9190   -0.8670 C   0  0  0  0  0  0  0  0  0  0  0  0
    0.6600    7.5080   -0.8460 O   0  0  0  0  0  0  0  0  0  0  0  0
    2.9270    7.4920   -1.6760 C   0  0  0  0  0  0  0  0  0  0  0  0
    3.0370    6.4990   -2.6490 C   0  0  0  0  0  0  0  0  0  0  0  0
    4.2690    6.3130   -3.2810 C   0  0  0  0  0  0  0  0  0  0  0  0
    5.3690    7.1070   -2.9470 C   0  0  0  0  0  0  0  0  0  0  0  0
    5.2420    8.1070   -1.9690 C   0  0  0  0  0  0  0  0  0  0  0  0
    6.3190    8.9110   -1.6070 N   0  0  0  0  0  0  0  0  0  0  0  0
    7.3430    9.2960   -2.5900 C   0  0  0  0  0  0  0  0  0  0  0  0
    8.1900   10.3670   -1.9280 C   0  0  0  0  0  0  0  0  0  0  0  0
    8.5920   10.4220   -0.6430 C   0  0  0  0  0  0  0  0  0  0  0  0
    9.3180   11.5350   -0.5480 N   0  0  0  0  0  0  0  0  0  0  0  0
    9.9660   12.0460    0.6500 C   0  0  0  0  0  0  0  0  0  0  0  0
   11.4610   12.1570    0.3200 C   0  0  0  0  0  0  0  0  0  0  0  0
   12.0750   12.5210    1.5480 O   0  0  0  0  0  0  0  0  0  0  0  0
   13.4610   12.8040    1.4060 C   0  0  0  0  0  0  0  0  0  0  0  0
   14.0300   13.1720    2.7780 C   0  0  0  0  0  0  0  0  0  0  0  0
   15.4260   13.5120    2.5610 O   0  0  0  0  0  0  0  0  0  0  0  0
   16.4800   12.6380    2.4090 C   0  0  0  0  0  0  0  0  0  0  0  0
   17.7250   13.1930    2.1350 C   0  0  0  0  0  0  0  0  0  0  0  0
   18.8280   12.3620    1.9690 C   0  0  0  0  0  0  0  0  0  0  0  0
   18.6910   10.9760    2.0780 C   0  0  0  0  0  0  0  0  0  0  0  0
   19.8980   10.0690    1.9000 C   0  0  0  0  0  0  0  0  0  0  0  0
   20.2530   10.1190    0.4820 N   0  0  0  0  0  0  0  0  0  0  0  0
   19.5870    9.4530   -0.5260 C   0  0  0  0  0  0  0  0  0  0  0  0
   20.1930    9.7360   -1.7090 C   0  0  0  0  0  0  0  0  0  0  0  0
   21.2720   10.6050   -1.4530 C   0  0  0  0  0  0  0  0  0  0  0  0
   22.2310   11.2250   -2.2720 C   0  0  0  0  0  0  0  0  0  0  0  0
   23.1850   12.0490   -1.7000 C   0  0  0  0  0  0  0  0  0  0  0  0
   23.2180   12.2810   -0.2900 C   0  0  0  0  0  0  0  0  0  0  0  0
   24.2300   13.1450    0.3280 C   0  0  0  0  0  0  0  0  0  0  0  0
   24.1700   13.5440    1.4950 O   0  0  0  0  0  0  0  0  0  0  0  0
   25.3250   13.5450   -0.3910 N   0  0  0  0  0  0  0  0  0  0  0  0
   26.2930   14.3790    0.2020 O   0  5  0  0  0  0  0  0  0  0  0  0
   22.2580   11.6680    0.5180 C   0  0  0  0  0  0  0  0  0  0  0  0
   21.3020   10.8390   -0.0820 C   0  0  0  0  0  0  0  0  0  0  0  0
   17.4350   10.4290    2.3540 C   0  0  0  0  0  0  0  0  0  0  0  0
   16.3270   11.2550    2.5220 C   0  0  0  0  0  0  0  0  0  0  0  0
    9.3670   12.1500   -1.7390 N   0  0  0  0  0  0  0  0  0  0  0  0
    8.6780   11.4340   -2.5950 N   0  0  0  0  0  0  0  0  0  0  0  0
    4.0050    8.2850   -1.3370 C   0  0  0  0  0  0  0  0  0  0  0  0
    3.5730    9.2110   -0.3270 C   0  0  0  0  0  0  0  0  0  0  0  0
    4.1920   10.1140    0.2260 O   0  0  0  0  0  0  0  0  0  0  0  0
    2.0830    9.4500    2.3570 C   0  0  0  0  0  0  0  0  0  0  0  0
    2.7380    8.4960    2.7160 O   0  0  0  0  0  0  0  0  0  0  0  0
    1.9230   10.4370    3.2810 N   0  0  0  0  0  0  0  0  0  0  0  0
   -0.5720   11.1760    1.8860 H   0  0  0  0  0  0  0  0  0  0  0  0
    0.1990   12.7490    1.5720 H   0  0  0  0  0  0  0  0  0  0  0  0
    2.1620   11.5630    0.5350 H   0  0  0  0  0  0  0  0  0  0  0  0
    0.6500   11.1550   -0.3120 H   0  0  0  0  0  0  0  0  0  0  0  0
    0.4400    9.0570    1.0390 H   0  0  0  0  0  0  0  0  0  0  0  0
    2.1870    5.8860   -2.9090 H   0  0  0  0  0  0  0  0  0  0  0  0
    4.3720    5.5470   -4.0360 H   0  0  0  0  0  0  0  0  0  0  0  0
    6.3170    6.9520   -3.4410 H   0  0  0  0  0  0  0  0  0  0  0  0
    6.3990    9.2350   -0.6540 H   0  0  0  0  0  0  0  0  0  0  0  0
    7.9590    8.4350   -2.8500 H   0  0  0  0  0  0  0  0  0  0  0  0
    6.8720    9.6910   -3.4900 H   0  0  0  0  0  0  0  0  0  0  0  0
    8.3720    9.7140    0.1430 H   0  0  0  0  0  0  0  0  0  0  0  0
    9.5630   13.0250    0.9080 H   0  0  0  0  0  0  0  0  0  0  0  0
    9.8140   11.3600    1.4830 H   0  0  0  0  0  0  0  0  0  0  0  0
   11.6320   12.9220   -0.4370 H   0  0  0  0  0  0  0  0  0  0  0  0
   11.8480   11.2020   -0.0350 H   0  0  0  0  0  0  0  0  0  0  0  0
   13.9770   11.9250    1.0190 H   0  0  0  0  0  0  0  0  0  0  0  0
   13.5960   13.6380    0.7170 H   0  0  0  0  0  0  0  0  0  0  0  0
   13.9490   12.3250    3.4600 H   0  0  0  0  0  0  0  0  0  0  0  0
   13.4940   14.0250    3.1930 H   0  0  0  0  0  0  0  0  0  0  0  0
   17.8350   14.2640    2.0510 H   0  0  0  0  0  0  0  0  0  0  0  0
   19.7960   12.7910    1.7550 H   0  0  0  0  0  0  0  0  0  0  0  0
   19.6470    9.0480    2.1890 H   0  0  0  0  0  0  0  0  0  0  0  0
   20.7290   10.4250    2.5090 H   0  0  0  0  0  0  0  0  0  0  0  0
   18.7270    8.8130   -0.3960 H   0  0  0  0  0  0  0  0  0  0  0  0
   19.8980    9.3600   -2.6780 H   0  0  0  0  0  0  0  0  0  0  0  0
   22.2240   11.0600   -3.3390 H   0  0  0  0  0  0  0  0  0  0  0  0
   23.9190   12.5260   -2.3320 H   0  0  0  0  0  0  0  0  0  0  0  0
   25.4390   13.2420   -1.3480 H   0  0  0  0  0  0  0  0  0  0  0  0
   22.2530   11.8300    1.5860 H   0  0  0  0  0  0  0  0  0  0  0  0
   17.3230    9.3580    2.4380 H   0  0  0  0  0  0  0  0  0  0  0  0
   15.3580   10.8300    2.7380 H   0  0  0  0  0  0  0  0  0  0  0  0
    2.3760   10.3310    4.1780 H   0  0  0  0  0  0  0  0  0  0  0  0
  1  2  2  0  0  0  0
  2  3  1  0  0  0  0
  2 52  1  0  0  0  0
  3  4  1  0  0  0  0
  3 53  1  0  0  0  0
  3 54  1  0  0  0  0
  4  5  1  0  0  0  0
  4 55  1  0  0  0  0
  4 56  1  0  0  0  0
  5  6  1  0  0  0  0
  5 50  1  0  0  0  0
  5 57  1  0  0  0  0
  6  7  1  0  0  0  0
  6 48  1  0  0  0  0
  7  8  2  0  0  0  0
  7  9  1  0  0  0  0
  9 10  1  0  0  0  0
  9 47  2  0  0  0  0
 10 11  2  0  0  0  0
 10 58  1  0  0  0  0
 11 12  1  0  0  0  0
 11 59  1  0  0  0  0
 12 13  2  0  0  0  0
 12 60  1  0  0  0  0
 13 14  1  0  0  0  0
 13 47  1  0  0  0  0
 14 15  1  0  0  0  0
 14 61  1  0  0  0  0
 15 16  1  0  0  0  0
 15 62  1  0  0  0  0
 15 63  1  0  0  0  0
 16 17  2  0  0  0  0
 16 46  1  0  0  0  0
 17 18  1  0  0  0  0
 17 64  1  0  0  0  0
 18 19  1  0  0  0  0
 18 45  1  0  0  0  0
 19 20  1  0  0  0  0
 19 65  1  0  0  0  0
 19 66  1  0  0  0  0
 20 21  1  0  0  0  0
 20 67  1  0  0  0  0
 20 68  1  0  0  0  0
 21 22  1  0  0  0  0
 22 23  1  0  0  0  0
 22 69  1  0  0  0  0
 22 70  1  0  0  0  0
 23 24  1  0  0  0  0
 23 71  1  0  0  0  0
 23 72  1  0  0  0  0
 24 25  1  0  0  0  0
 25 26  1  0  0  0  0
 25 44  2  0  0  0  0
 26 27  2  0  0  0  0
 26 73  1  0  0  0  0
 27 28  1  0  0  0  0
 27 74  1  0  0  0  0
 28 29  1  0  0  0  0
 28 43  2  0  0  0  0
 29 30  1  0  0  0  0
 29 75  1  0  0  0  0
 29 76  1  0  0  0  0
 30 31  1  0  0  0  0
 30 42  1  0  0  0  0
 31 32  2  0  0  0  0
 31 77  1  0  0  0  0
 32 33  1  0  0  0  0
 32 78  1  0  0  0  0
 33 34  1  0  0  0  0
 33 42  2  0  0  0  0
 34 35  2  0  0  0  0
 34 79  1  0  0  0  0
 35 36  1  0  0  0  0
 35 80  1  0  0  0  0
 36 37  1  0  0  0  0
 36 41  2  0  0  0  0
 37 38  2  0  0  0  0
 37 39  1  0  0  0  0
 39 40  1  0  0  0  0
 39 81  1  0  0  0  0
 41 42  1  0  0  0  0
 41 82  1  0  0  0  0
 43 44  1  0  0  0  0
 43 83  1  0  0  0  0
 44 84  1  0  0  0  0
 45 46  2  0  0  0  0
 47 48  1  0  0  0  0
 48 49  2  0  0  0  0
 50 51  2  0  0  0  0
 50 52  1  0  0  0  0
 52 85  1  0  0  0  0
M  CHG  1  40  -1
M  END
>  <Compound ID>
4604

>  <Uniprot>
Q9BY41

>  <Target>
HDAC8

>  <E3 ligase>
CRBN

>  <Article DOI>
10.1021/acs.jmedchem.2c00739

>  <Molecular Weight>
706.716

>  <Exact Mass>
706.24994

>  <XLogP3>
1.87

>  <Heavy Atom Count>
52

>  <Ring Count>
7

>  <Hydrogen Bond Acceptor Count>
13

>  <Hydrogen Bond Donor Count>
4

>  <Rotatable Bond Count>
14

>  <Topological Polar Surface Area>
199.00999

>  <Molecular Formula>
C36H34N8O8

>  <InChI>
InChI=1S/C36H34N8O8/c45-31-11-10-29(34(47)38-31)44-35(48)27-2-1-3-28(32(27)36(44)49)37-19-25-21-43(41-39-25)14-15-51-16-17-52-26-8-4-22(5-9-26)20-42-13-12-23-6-7-24(18-30(23)42)33(46)40-50/h1-9,12-13,18,21,29,37,50H,10-11,14-17,19-20H2,(H,40,46)(H,38,45,47)

>  <InChI Key>
OCXICBCMNKOWFI-UHFFFAOYSA-N

>  <DC50 (nM)>
580

>  <Assay (DC50/Dmax)>
Degradation of HDAC8 in A549 cells

>  <Dmax (%)>
>95

>  <Percent degradation (%)>
39.7/85.4

>  <Assay (Percent degradation)>
% HDAC8 protein degradation in A549 cells at 200/2000 nM for 20 h

>  <IC50 (nM, Cellular activities)>
9550

>  <Assay (Cellular activities, IC50)>
Inhibition of cell proliferation of CCK-8 cells

$$$$
4605
  MOE2018           3D

 92 98  0  0  1  0  0  0  0  0999 V2000
    1.1060   -8.0720    5.1750 O   0  0  0  0  0  0  0  0  0  0  0  0
    0.4420   -8.6380    4.3470 C   0  0  0  0  0  0  0  0  0  0  0  0
   -0.4580   -7.9160    3.3610 C   0  0  0  0  0  0  0  0  0  0  0  0
   -0.4090   -8.6780    2.0150 C   0  0  0  0  0  0  0  0  0  0  0  0
   -0.9370  -10.1090    2.2910 C   0  0  1  0  0  0  0  0  0  0  0  0
   -0.8410  -10.8840    1.0450 N   0  0  0  0  0  0  0  0  0  0  0  0
   -1.9330  -11.4370    0.4030 C   0  0  0  0  0  0  0  0  0  0  0  0
   -3.0790  -11.2180    0.7640 O   0  0  0  0  0  0  0  0  0  0  0  0
   -1.4520  -12.2390   -0.6960 C   0  0  0  0  0  0  0  0  0  0  0  0
   -2.1270  -12.9980   -1.6520 C   0  0  0  0  0  0  0  0  0  0  0  0
   -1.3800  -13.6800   -2.6170 C   0  0  0  0  0  0  0  0  0  0  0  0
    0.0150  -13.6010   -2.6250 C   0  0  0  0  0  0  0  0  0  0  0  0
    0.6810  -12.8260   -1.6620 C   0  0  0  0  0  0  0  0  0  0  0  0
    2.0680  -12.7250   -1.6410 N   0  0  0  0  0  0  0  0  0  0  0  0
    2.8490  -12.7700   -2.8860 C   0  0  0  0  0  0  0  0  0  0  0  0
    4.2340  -12.2490   -2.5470 C   0  0  0  0  0  0  0  0  0  0  0  0
    4.9290  -12.4260   -1.4060 C   0  0  0  0  0  0  0  0  0  0  0  0
    6.0840  -11.7910   -1.5960 N   0  0  0  0  0  0  0  0  0  0  0  0
    7.1890  -11.6870   -0.6560 C   0  0  0  0  0  0  0  0  0  0  0  0
    8.3320  -12.5130   -1.2580 C   0  0  0  0  0  0  0  0  0  0  0  0
    9.3790  -12.4400   -0.3010 O   0  0  0  0  0  0  0  0  0  0  0  0
   10.5490  -13.1300   -0.7230 C   0  0  0  0  0  0  0  0  0  0  0  0
   11.6350  -12.9800    0.3410 C   0  0  0  0  0  0  0  0  0  0  0  0
   12.7730  -13.7400   -0.0420 O   0  0  0  0  0  0  0  0  0  0  0  0
   13.8370  -13.6370    0.8950 C   0  0  0  0  0  0  0  0  0  0  0  0
   14.9990  -14.5040    0.4200 C   0  0  0  0  0  0  0  0  0  0  0  0
   16.0250  -14.3650    1.4360 O   0  0  0  0  0  0  0  0  0  0  0  0
   17.2360  -15.0170    1.4160 C   0  0  0  0  0  0  0  0  0  0  0  0
   18.1250  -14.7410    2.4490 C   0  0  0  0  0  0  0  0  0  0  0  0
   19.3710  -15.3570    2.4670 C   0  0  0  0  0  0  0  0  0  0  0  0
   19.7360  -16.2470    1.4520 C   0  0  0  0  0  0  0  0  0  0  0  0
   21.1160  -16.8910    1.4350 C   0  0  0  0  0  0  0  0  0  0  0  0
   22.1340  -15.8310    1.5340 N   0  0  0  0  0  0  0  0  0  0  0  0
   23.2490  -15.9260    2.3400 C   0  0  0  0  0  0  0  0  0  0  0  0
   24.0040  -14.8080    2.1790 C   0  0  0  0  0  0  0  0  0  0  0  0
   23.3590  -13.9710    1.2470 C   0  0  0  0  0  0  0  0  0  0  0  0
   23.6620  -12.7070    0.7110 C   0  0  0  0  0  0  0  0  0  0  0  0
   22.7840  -12.1220   -0.1870 C   0  0  0  0  0  0  0  0  0  0  0  0
   21.5820  -12.7760   -0.5790 C   0  0  0  0  0  0  0  0  0  0  0  0
   20.6450  -12.1060   -1.4810 C   0  0  0  0  0  0  0  0  0  0  0  0
   20.9710  -11.2480   -2.3070 O   0  0  0  0  0  0  0  0  0  0  0  0
   19.3130  -12.4190   -1.4090 N   0  0  0  0  0  0  0  0  0  0  0  0
   18.3920  -11.7990   -2.2770 O   0  5  0  0  0  0  0  0  0  0  0  0
   21.3080  -14.0500   -0.0810 C   0  0  0  0  0  0  0  0  0  0  0  0
   22.1950  -14.6180    0.8430 C   0  0  0  0  0  0  0  0  0  0  0  0
   18.8240  -16.5330    0.4320 C   0  0  0  0  0  0  0  0  0  0  0  0
   17.5760  -15.9190    0.4060 C   0  0  0  0  0  0  0  0  0  0  0  0
    6.1090  -11.2450   -2.8190 N   0  0  0  0  0  0  0  0  0  0  0  0
    4.9730  -11.5250   -3.4120 N   0  0  0  0  0  0  0  0  0  0  0  0
   -0.0730  -12.1510   -0.6940 C   0  0  0  0  0  0  0  0  0  0  0  0
    0.3140  -11.2960    0.3930 C   0  0  0  0  0  0  0  0  0  0  0  0
    1.4300  -10.9170    0.7340 O   0  0  0  0  0  0  0  0  0  0  0  0
   -0.1010  -10.7690    3.3990 C   0  0  0  0  0  0  0  0  0  0  0  0
    0.0260  -11.9650    3.5430 O   0  0  0  0  0  0  0  0  0  0  0  0
    0.5130   -9.9940    4.3360 N   0  0  0  0  0  0  0  0  0  0  0  0
   -1.4800   -7.8990    3.7390 H   0  0  0  0  0  0  0  0  0  0  0  0
   -0.1060   -6.8940    3.2200 H   0  0  0  0  0  0  0  0  0  0  0  0
    0.6150   -8.7210    1.6450 H   0  0  0  0  0  0  0  0  0  0  0  0
   -1.0410   -8.1800    1.2790 H   0  0  0  0  0  0  0  0  0  0  0  0
   -1.9740  -10.0730    2.6240 H   0  0  0  0  0  0  0  0  0  0  0  0
   -3.2050  -13.0580   -1.6470 H   0  0  0  0  0  0  0  0  0  0  0  0
   -1.8860  -14.2740   -3.3640 H   0  0  0  0  0  0  0  0  0  0  0  0
    0.5810  -14.1360   -3.3730 H   0  0  0  0  0  0  0  0  0  0  0  0
    2.5460  -12.6190   -0.7570 H   0  0  0  0  0  0  0  0  0  0  0  0
    2.9120  -13.7940   -3.2540 H   0  0  0  0  0  0  0  0  0  0  0  0
    2.3850  -12.1390   -3.6440 H   0  0  0  0  0  0  0  0  0  0  0  0
    4.6160  -12.9670   -0.5250 H   0  0  0  0  0  0  0  0  0  0  0  0
    7.4930  -10.6460   -0.5410 H   0  0  0  0  0  0  0  0  0  0  0  0
    6.9000  -12.0900    0.3150 H   0  0  0  0  0  0  0  0  0  0  0  0
    8.6520  -12.0890   -2.2100 H   0  0  0  0  0  0  0  0  0  0  0  0
    8.0210  -13.5470   -1.4080 H   0  0  0  0  0  0  0  0  0  0  0  0
   10.3190  -14.1860   -0.8620 H   0  0  0  0  0  0  0  0  0  0  0  0
   10.9010  -12.7080   -1.6640 H   0  0  0  0  0  0  0  0  0  0  0  0
   11.2600  -13.3420    1.2980 H   0  0  0  0  0  0  0  0  0  0  0  0
   11.9120  -11.9300    0.4330 H   0  0  0  0  0  0  0  0  0  0  0  0
   14.1610  -12.5990    0.9680 H   0  0  0  0  0  0  0  0  0  0  0  0
   13.4990  -13.9820    1.8720 H   0  0  0  0  0  0  0  0  0  0  0  0
   15.3670  -14.1530   -0.5440 H   0  0  0  0  0  0  0  0  0  0  0  0
   14.6870  -15.5450    0.3330 H   0  0  0  0  0  0  0  0  0  0  0  0
   17.8490  -14.0520    3.2330 H   0  0  0  0  0  0  0  0  0  0  0  0
   20.0620  -15.1470    3.2700 H   0  0  0  0  0  0  0  0  0  0  0  0
   21.2510  -17.4440    0.5050 H   0  0  0  0  0  0  0  0  0  0  0  0
   21.2130  -17.5730    2.2800 H   0  0  0  0  0  0  0  0  0  0  0  0
   23.4840  -16.7540    2.9930 H   0  0  0  0  0  0  0  0  0  0  0  0
   24.9380  -14.5970    2.6790 H   0  0  0  0  0  0  0  0  0  0  0  0
   24.5700  -12.1970    0.9960 H   0  0  0  0  0  0  0  0  0  0  0  0
   23.0160  -11.1510   -0.5980 H   0  0  0  0  0  0  0  0  0  0  0  0
   18.9900  -13.0960   -0.7320 H   0  0  0  0  0  0  0  0  0  0  0  0
   20.4280  -14.5880   -0.4020 H   0  0  0  0  0  0  0  0  0  0  0  0
   19.0910  -17.2370   -0.3430 H   0  0  0  0  0  0  0  0  0  0  0  0
   16.8770  -16.1380   -0.3880 H   0  0  0  0  0  0  0  0  0  0  0  0
    1.0490  -10.4520    5.0600 H   0  0  0  0  0  0  0  0  0  0  0  0
  1  2  2  0  0  0  0
  2  3  1  0  0  0  0
  2 55  1  0  0  0  0
  3  4  1  0  0  0  0
  3 56  1  0  0  0  0
  3 57  1  0  0  0  0
  4  5  1  0  0  0  0
  4 58  1  0  0  0  0
  4 59  1  0  0  0  0
  5  6  1  0  0  0  0
  5 53  1  0  0  0  0
  5 60  1  0  0  0  0
  6  7  1  0  0  0  0
  6 51  1  0  0  0  0
  7  8  2  0  0  0  0
  7  9  1  0  0  0  0
  9 10  1  0  0  0  0
  9 50  2  0  0  0  0
 10 11  2  0  0  0  0
 10 61  1  0  0  0  0
 11 12  1  0  0  0  0
 11 62  1  0  0  0  0
 12 13  2  0  0  0  0
 12 63  1  0  0  0  0
 13 14  1  0  0  0  0
 13 50  1  0  0  0  0
 14 15  1  0  0  0  0
 14 64  1  0  0  0  0
 15 16  1  0  0  0  0
 15 65  1  0  0  0  0
 15 66  1  0  0  0  0
 16 17  2  0  0  0  0
 16 49  1  0  0  0  0
 17 18  1  0  0  0  0
 17 67  1  0  0  0  0
 18 19  1  0  0  0  0
 18 48  1  0  0  0  0
 19 20  1  0  0  0  0
 19 68  1  0  0  0  0
 19 69  1  0  0  0  0
 20 21  1  0  0  0  0
 20 70  1  0  0  0  0
 20 71  1  0  0  0  0
 21 22  1  0  0  0  0
 22 23  1  0  0  0  0
 22 72  1  0  0  0  0
 22 73  1  0  0  0  0
 23 24  1  0  0  0  0
 23 74  1  0  0  0  0
 23 75  1  0  0  0  0
 24 25  1  0  0  0  0
 25 26  1  0  0  0  0
 25 76  1  0  0  0  0
 25 77  1  0  0  0  0
 26 27  1  0  0  0  0
 26 78  1  0  0  0  0
 26 79  1  0  0  0  0
 27 28  1  0  0  0  0
 28 29  1  0  0  0  0
 28 47  2  0  0  0  0
 29 30  2  0  0  0  0
 29 80  1  0  0  0  0
 30 31  1  0  0  0  0
 30 81  1  0  0  0  0
 31 32  1  0  0  0  0
 31 46  2  0  0  0  0
 32 33  1  0  0  0  0
 32 82  1  0  0  0  0
 32 83  1  0  0  0  0
 33 34  1  0  0  0  0
 33 45  1  0  0  0  0
 34 35  2  0  0  0  0
 34 84  1  0  0  0  0
 35 36  1  0  0  0  0
 35 85  1  0  0  0  0
 36 37  1  0  0  0  0
 36 45  2  0  0  0  0
 37 38  2  0  0  0  0
 37 86  1  0  0  0  0
 38 39  1  0  0  0  0
 38 87  1  0  0  0  0
 39 40  1  0  0  0  0
 39 44  2  0  0  0  0
 40 41  2  0  0  0  0
 40 42  1  0  0  0  0
 42 43  1  0  0  0  0
 42 88  1  0  0  0  0
 44 45  1  0  0  0  0
 44 89  1  0  0  0  0
 46 47  1  0  0  0  0
 46 90  1  0  0  0  0
 47 91  1  0  0  0  0
 48 49  2  0  0  0  0
 50 51  1  0  0  0  0
 51 52  2  0  0  0  0
 53 54  2  0  0  0  0
 53 55  1  0  0  0  0
 55 92  1  0  0  0  0
M  CHG  1  43  -1
M  END
>  <Compound ID>
4605

>  <Uniprot>
Q9BY41

>  <Target>
HDAC8

>  <E3 ligase>
CRBN

>  <Article DOI>
10.1021/acs.jmedchem.2c00739

>  <Molecular Weight>
750.76898

>  <Exact Mass>
750.27618

>  <XLogP3>
1.72

>  <Heavy Atom Count>
55

>  <Ring Count>
7

>  <Hydrogen Bond Acceptor Count>
14

>  <Hydrogen Bond Donor Count>
4

>  <Rotatable Bond Count>
17

>  <Topological Polar Surface Area>
208.24001

>  <Molecular Formula>
C38H38N8O9

>  <InChI>
InChI=1S/C38H38N8O9/c47-33-11-10-31(36(49)40-33)46-37(50)29-2-1-3-30(34(29)38(46)51)39-21-27-23-45(43-41-27)14-15-53-16-17-54-18-19-55-28-8-4-24(5-9-28)22-44-13-12-25-6-7-26(20-32(25)44)35(48)42-52/h1-9,12-13,20,23,31,39,52H,10-11,14-19,21-22H2,(H,42,48)(H,40,47,49)

>  <InChI Key>
NHZZCFSITWZZFA-UHFFFAOYSA-N

>  <Percent degradation (%)>
42.5/70.8

>  <Assay (Percent degradation)>
% HDAC8 protein degradation in A549 cells at 200/2000 nM for 20 h

$$$$
4606
  MOE2018           3D

 99105  0  0  1  0  0  0  0  0999 V2000
   10.3440  -10.5920   -4.7210 O   0  0  0  0  0  0  0  0  0  0  0  0
    9.6670   -9.6890   -4.3010 C   0  0  0  0  0  0  0  0  0  0  0  0
    8.1510   -9.7310   -4.2540 C   0  0  0  0  0  0  0  0  0  0  0  0
    7.7000   -9.0380   -2.9470 C   0  0  0  0  0  0  0  0  0  0  0  0
    8.1910   -7.5680   -3.0190 C   0  0  1  0  0  0  0  0  0  0  0  0
    7.8690   -6.9280   -1.7360 N   0  0  0  0  0  0  0  0  0  0  0  0
    6.9540   -5.9030   -1.5920 C   0  0  0  0  0  0  0  0  0  0  0  0
    6.2790   -5.4990   -2.5270 O   0  0  0  0  0  0  0  0  0  0  0  0
    6.9600   -5.4830   -0.2110 C   0  0  0  0  0  0  0  0  0  0  0  0
    6.2280   -4.5070    0.4650 C   0  0  0  0  0  0  0  0  0  0  0  0
    6.4450   -4.3330    1.8350 C   0  0  0  0  0  0  0  0  0  0  0  0
    7.3760   -5.1230    2.5150 C   0  0  0  0  0  0  0  0  0  0  0  0
    8.1010   -6.1050    1.8230 C   0  0  0  0  0  0  0  0  0  0  0  0
    9.0360   -6.9060    2.4680 N   0  0  0  0  0  0  0  0  0  0  0  0
    8.7540   -7.4230    3.8120 C   0  0  0  0  0  0  0  0  0  0  0  0
    9.7700   -8.5270    4.0220 C   0  0  0  0  0  0  0  0  0  0  0  0
   11.1050   -8.3870    4.1210 C   0  0  0  0  0  0  0  0  0  0  0  0
   11.5750   -9.6220    4.2840 N   0  0  0  0  0  0  0  0  0  0  0  0
   12.9660  -10.0150    4.4080 C   0  0  0  0  0  0  0  0  0  0  0  0
   13.4480  -10.2880    2.9790 C   0  0  0  0  0  0  0  0  0  0  0  0
   14.8210  -10.6140    3.1260 O   0  0  0  0  0  0  0  0  0  0  0  0
   15.4760  -10.8250    1.8810 C   0  0  0  0  0  0  0  0  0  0  0  0
   16.9300  -11.2080    2.1500 C   0  0  0  0  0  0  0  0  0  0  0  0
   17.6910  -11.0940    0.9530 O   0  0  0  0  0  0  0  0  0  0  0  0
   19.0570  -11.4320    1.1580 C   0  0  0  0  0  0  0  0  0  0  0  0
   19.8430  -11.2160   -0.1330 C   0  0  0  0  0  0  0  0  0  0  0  0
   21.2100  -11.5210    0.1120 O   0  0  0  0  0  0  0  0  0  0  0  0
   22.0350  -11.2970   -1.0230 C   0  0  0  0  0  0  0  0  0  0  0  0
   23.4720  -11.6610   -0.6600 C   0  0  0  0  0  0  0  0  0  0  0  0
   24.2540  -11.3820   -1.8470 O   0  0  0  0  0  0  0  0  0  0  0  0
   25.6200  -11.5370   -1.9250 C   0  0  0  0  0  0  0  0  0  0  0  0
   26.3670  -12.0800   -0.8790 C   0  0  0  0  0  0  0  0  0  0  0  0
   27.7450  -12.2050   -1.0180 C   0  0  0  0  0  0  0  0  0  0  0  0
   28.3800  -11.7910   -2.1920 C   0  0  0  0  0  0  0  0  0  0  0  0
   29.8870  -11.9300   -2.3410 C   0  0  0  0  0  0  0  0  0  0  0  0
   30.5090  -11.1060   -1.3010 N   0  0  0  0  0  0  0  0  0  0  0  0
   30.2450   -9.7700   -1.0740 C   0  0  0  0  0  0  0  0  0  0  0  0
   31.0380   -9.3350   -0.0600 C   0  0  0  0  0  0  0  0  0  0  0  0
   31.8330  -10.4160    0.3700 C   0  0  0  0  0  0  0  0  0  0  0  0
   32.8160  -10.5560    1.3650 C   0  0  0  0  0  0  0  0  0  0  0  0
   33.4340  -11.7820    1.5430 C   0  0  0  0  0  0  0  0  0  0  0  0
   33.0960  -12.9090    0.7320 C   0  0  0  0  0  0  0  0  0  0  0  0
   33.7540  -14.2070    0.9060 C   0  0  0  0  0  0  0  0  0  0  0  0
   33.3220  -15.2630    0.4330 O   0  0  0  0  0  0  0  0  0  0  0  0
   34.9220  -14.2940    1.6140 N   0  0  0  0  0  0  0  0  0  0  0  0
   35.5470  -15.5430    1.7980 O   0  5  0  0  0  0  0  0  0  0  0  0
   32.1110  -12.7660   -0.2470 C   0  0  0  0  0  0  0  0  0  0  0  0
   31.4980  -11.5170   -0.4100 C   0  0  0  0  0  0  0  0  0  0  0  0
   27.6180  -11.2520   -3.2310 C   0  0  0  0  0  0  0  0  0  0  0  0
   26.2390  -11.1260   -3.1000 C   0  0  0  0  0  0  0  0  0  0  0  0
   10.5640  -10.5010    4.2830 N   0  0  0  0  0  0  0  0  0  0  0  0
    9.4470   -9.8320    4.1250 N   0  0  0  0  0  0  0  0  0  0  0  0
    7.8830   -6.2690    0.4510 C   0  0  0  0  0  0  0  0  0  0  0  0
    8.4510   -7.1830   -0.5010 C   0  0  0  0  0  0  0  0  0  0  0  0
    9.2700   -8.0800   -0.3350 O   0  0  0  0  0  0  0  0  0  0  0  0
    9.7080   -7.5280   -3.2740 C   0  0  0  0  0  0  0  0  0  0  0  0
   10.4180   -6.5810   -3.0180 O   0  0  0  0  0  0  0  0  0  0  0  0
   10.3260   -8.5820   -3.8750 N   0  0  0  0  0  0  0  0  0  0  0  0
    7.7380   -9.2040   -5.1150 H   0  0  0  0  0  0  0  0  0  0  0  0
    7.8080  -10.7660   -4.2630 H   0  0  0  0  0  0  0  0  0  0  0  0
    8.1430   -9.5390   -2.0860 H   0  0  0  0  0  0  0  0  0  0  0  0
    6.6130   -9.0660   -2.8640 H   0  0  0  0  0  0  0  0  0  0  0  0
    7.7020   -7.0400   -3.8380 H   0  0  0  0  0  0  0  0  0  0  0  0
    5.5070   -3.8970   -0.0600 H   0  0  0  0  0  0  0  0  0  0  0  0
    5.8880   -3.5810    2.3730 H   0  0  0  0  0  0  0  0  0  0  0  0
    7.5370   -4.9780    3.5730 H   0  0  0  0  0  0  0  0  0  0  0  0
    9.9080   -7.1320    2.0120 H   0  0  0  0  0  0  0  0  0  0  0  0
    8.8790   -6.6390    4.5590 H   0  0  0  0  0  0  0  0  0  0  0  0
    7.7400   -7.8190    3.8660 H   0  0  0  0  0  0  0  0  0  0  0  0
   11.6730   -7.4700    4.0780 H   0  0  0  0  0  0  0  0  0  0  0  0
   13.5490   -9.2120    4.8590 H   0  0  0  0  0  0  0  0  0  0  0  0
   13.0540  -10.9150    5.0170 H   0  0  0  0  0  0  0  0  0  0  0  0
   13.3260   -9.4020    2.3550 H   0  0  0  0  0  0  0  0  0  0  0  0
   12.8990  -11.1200    2.5390 H   0  0  0  0  0  0  0  0  0  0  0  0
   14.9800  -11.6290    1.3370 H   0  0  0  0  0  0  0  0  0  0  0  0
   15.4410   -9.9100    1.2890 H   0  0  0  0  0  0  0  0  0  0  0  0
   16.9720  -12.2370    2.5080 H   0  0  0  0  0  0  0  0  0  0  0  0
   17.3450  -10.5420    2.9070 H   0  0  0  0  0  0  0  0  0  0  0  0
   19.4720  -10.8010    1.9440 H   0  0  0  0  0  0  0  0  0  0  0  0
   19.1300  -12.4780    1.4550 H   0  0  0  0  0  0  0  0  0  0  0  0
   19.7500  -10.1770   -0.4500 H   0  0  0  0  0  0  0  0  0  0  0  0
   19.4550  -11.8710   -0.9130 H   0  0  0  0  0  0  0  0  0  0  0  0
   21.6970  -11.9190   -1.8510 H   0  0  0  0  0  0  0  0  0  0  0  0
   21.9840  -10.2470   -1.3130 H   0  0  0  0  0  0  0  0  0  0  0  0
   23.5430  -12.7160   -0.3970 H   0  0  0  0  0  0  0  0  0  0  0  0
   23.8190  -11.0540    0.1760 H   0  0  0  0  0  0  0  0  0  0  0  0
   25.8800  -12.4000    0.0300 H   0  0  0  0  0  0  0  0  0  0  0  0
   28.3290  -12.6250   -0.2120 H   0  0  0  0  0  0  0  0  0  0  0  0
   30.1970  -11.5830   -3.3260 H   0  0  0  0  0  0  0  0  0  0  0  0
   30.1790  -12.9720   -2.2140 H   0  0  0  0  0  0  0  0  0  0  0  0
   29.5270   -9.1700   -1.6130 H   0  0  0  0  0  0  0  0  0  0  0  0
   31.0560   -8.3340    0.3460 H   0  0  0  0  0  0  0  0  0  0  0  0
   33.0870   -9.7140    1.9850 H   0  0  0  0  0  0  0  0  0  0  0  0
   34.1870  -11.8890    2.3100 H   0  0  0  0  0  0  0  0  0  0  0  0
   35.3370  -13.4610    2.0060 H   0  0  0  0  0  0  0  0  0  0  0  0
   31.8270  -13.6030   -0.8670 H   0  0  0  0  0  0  0  0  0  0  0  0
   28.1020  -10.9310   -4.1410 H   0  0  0  0  0  0  0  0  0  0  0  0
   25.6520  -10.7110   -3.9060 H   0  0  0  0  0  0  0  0  0  0  0  0
   11.3260   -8.5380   -4.0110 H   0  0  0  0  0  0  0  0  0  0  0  0
  1  2  2  0  0  0  0
  2  3  1  0  0  0  0
  2 58  1  0  0  0  0
  3  4  1  0  0  0  0
  3 59  1  0  0  0  0
  3 60  1  0  0  0  0
  4  5  1  0  0  0  0
  4 61  1  0  0  0  0
  4 62  1  0  0  0  0
  5  6  1  0  0  0  0
  5 56  1  0  0  0  0
  5 63  1  0  0  0  0
  6  7  1  0  0  0  0
  6 54  1  0  0  0  0
  7  8  2  0  0  0  0
  7  9  1  0  0  0  0
  9 10  1  0  0  0  0
  9 53  2  0  0  0  0
 10 11  2  0  0  0  0
 10 64  1  0  0  0  0
 11 12  1  0  0  0  0
 11 65  1  0  0  0  0
 12 13  2  0  0  0  0
 12 66  1  0  0  0  0
 13 14  1  0  0  0  0
 13 53  1  0  0  0  0
 14 15  1  0  0  0  0
 14 67  1  0  0  0  0
 15 16  1  0  0  0  0
 15 68  1  0  0  0  0
 15 69  1  0  0  0  0
 16 17  2  0  0  0  0
 16 52  1  0  0  0  0
 17 18  1  0  0  0  0
 17 70  1  0  0  0  0
 18 19  1  0  0  0  0
 18 51  1  0  0  0  0
 19 20  1  0  0  0  0
 19 71  1  0  0  0  0
 19 72  1  0  0  0  0
 20 21  1  0  0  0  0
 20 73  1  0  0  0  0
 20 74  1  0  0  0  0
 21 22  1  0  0  0  0
 22 23  1  0  0  0  0
 22 75  1  0  0  0  0
 22 76  1  0  0  0  0
 23 24  1  0  0  0  0
 23 77  1  0  0  0  0
 23 78  1  0  0  0  0
 24 25  1  0  0  0  0
 25 26  1  0  0  0  0
 25 79  1  0  0  0  0
 25 80  1  0  0  0  0
 26 27  1  0  0  0  0
 26 81  1  0  0  0  0
 26 82  1  0  0  0  0
 27 28  1  0  0  0  0
 28 29  1  0  0  0  0
 28 83  1  0  0  0  0
 28 84  1  0  0  0  0
 29 30  1  0  0  0  0
 29 85  1  0  0  0  0
 29 86  1  0  0  0  0
 30 31  1  0  0  0  0
 31 32  1  0  0  0  0
 31 50  2  0  0  0  0
 32 33  2  0  0  0  0
 32 87  1  0  0  0  0
 33 34  1  0  0  0  0
 33 88  1  0  0  0  0
 34 35  1  0  0  0  0
 34 49  2  0  0  0  0
 35 36  1  0  0  0  0
 35 89  1  0  0  0  0
 35 90  1  0  0  0  0
 36 37  1  0  0  0  0
 36 48  1  0  0  0  0
 37 38  2  0  0  0  0
 37 91  1  0  0  0  0
 38 39  1  0  0  0  0
 38 92  1  0  0  0  0
 39 40  1  0  0  0  0
 39 48  2  0  0  0  0
 40 41  2  0  0  0  0
 40 93  1  0  0  0  0
 41 42  1  0  0  0  0
 41 94  1  0  0  0  0
 42 43  1  0  0  0  0
 42 47  2  0  0  0  0
 43 44  2  0  0  0  0
 43 45  1  0  0  0  0
 45 46  1  0  0  0  0
 45 95  1  0  0  0  0
 47 48  1  0  0  0  0
 47 96  1  0  0  0  0
 49 50  1  0  0  0  0
 49 97  1  0  0  0  0
 50 98  1  0  0  0  0
 51 52  2  0  0  0  0
 53 54  1  0  0  0  0
 54 55  2  0  0  0  0
 56 57  2  0  0  0  0
 56 58  1  0  0  0  0
 58 99  1  0  0  0  0
M  CHG  1  46  -1
M  END
>  <Compound ID>
4606

>  <Uniprot>
Q9BY41

>  <Target>
HDAC8

>  <E3 ligase>
CRBN

>  <Article DOI>
10.1021/acs.jmedchem.2c00739

>  <Molecular Weight>
794.82202

>  <Exact Mass>
794.30237

>  <XLogP3>
1.58

>  <Heavy Atom Count>
58

>  <Ring Count>
7

>  <Hydrogen Bond Acceptor Count>
15

>  <Hydrogen Bond Donor Count>
4

>  <Rotatable Bond Count>
20

>  <Topological Polar Surface Area>
217.47

>  <Molecular Formula>
C40H42N8O10

>  <InChI>
InChI=1S/C40H42N8O10/c49-35-11-10-33(38(51)42-35)48-39(52)31-2-1-3-32(36(31)40(48)53)41-23-29-25-47(45-43-29)14-15-55-16-17-56-18-19-57-20-21-58-30-8-4-26(5-9-30)24-46-13-12-27-6-7-28(22-34(27)46)37(50)44-54/h1-9,12-13,22,25,33,41,54H,10-11,14-21,23-24H2,(H,44,50)(H,42,49,51)

>  <InChI Key>
YYMQQGGNBVDBBV-UHFFFAOYSA-N

>  <Percent degradation (%)>
36.5/65.9

>  <Assay (Percent degradation)>
% HDAC8 protein degradation in A549 cells at 200/2000 nM for 20 h

$$$$
4607
  MOE2018           3D

106112  0  0  1  0  0  0  0  0999 V2000
    6.7550   -0.0760    1.3740 O   0  0  0  0  0  0  0  0  0  0  0  0
    6.4990   -1.2520    1.3510 C   0  0  0  0  0  0  0  0  0  0  0  0
    5.4150   -1.8540    0.4760 C   0  0  0  0  0  0  0  0  0  0  0  0
    5.9020   -3.2400   -0.0100 C   0  0  0  0  0  0  0  0  0  0  0  0
    6.1280   -4.1060    1.2560 C   0  0  1  0  0  0  0  0  0  0  0  0
    6.6550   -5.4090    0.8250 N   0  0  0  0  0  0  0  0  0  0  0  0
    5.9860   -6.6030    1.0090 C   0  0  0  0  0  0  0  0  0  0  0  0
    4.8510   -6.6500    1.4590 O   0  0  0  0  0  0  0  0  0  0  0  0
    6.8460   -7.6740    0.5660 C   0  0  0  0  0  0  0  0  0  0  0  0
    6.6570   -9.0550    0.5290 C   0  0  0  0  0  0  0  0  0  0  0  0
    7.6880   -9.8600    0.0330 C   0  0  0  0  0  0  0  0  0  0  0  0
    8.8830   -9.2910   -0.4140 C   0  0  0  0  0  0  0  0  0  0  0  0
    9.0580   -7.8990   -0.3730 C   0  0  0  0  0  0  0  0  0  0  0  0
   10.2390   -7.2950   -0.7920 N   0  0  0  0  0  0  0  0  0  0  0  0
   11.1210   -7.8990   -1.8040 C   0  0  0  0  0  0  0  0  0  0  0  0
   12.2790   -6.9390   -2.0150 C   0  0  0  0  0  0  0  0  0  0  0  0
   12.7200   -5.9700   -1.1880 C   0  0  0  0  0  0  0  0  0  0  0  0
   13.7620   -5.4230   -1.8120 N   0  0  0  0  0  0  0  0  0  0  0  0
   14.6000   -4.3450   -1.3190 C   0  0  0  0  0  0  0  0  0  0  0  0
   15.8740   -5.0210   -0.8010 C   0  0  0  0  0  0  0  0  0  0  0  0
   16.6490   -3.9600   -0.2620 O   0  0  0  0  0  0  0  0  0  0  0  0
   17.9080   -4.4010    0.2330 C   0  0  0  0  0  0  0  0  0  0  0  0
   18.7000   -3.1940    0.7290 C   0  0  0  0  0  0  0  0  0  0  0  0
   19.9840   -3.6260    1.1550 O   0  0  0  0  0  0  0  0  0  0  0  0
   20.8130   -2.5450    1.5670 C   0  0  0  0  0  0  0  0  0  0  0  0
   22.2320   -3.0460    1.8510 C   0  0  0  0  0  0  0  0  0  0  0  0
   22.9960   -3.0370    0.6510 O   0  0  0  0  0  0  0  0  0  0  0  0
   24.3170   -3.5250    0.8290 C   0  0  0  0  0  0  0  0  0  0  0  0
   25.0380   -3.4970   -0.5210 C   0  0  0  0  0  0  0  0  0  0  0  0
   26.4510   -3.6240   -0.3800 O   0  0  0  0  0  0  0  0  0  0  0  0
   26.8930   -4.9320   -0.0370 C   0  0  0  0  0  0  0  0  0  0  0  0
   28.4190   -4.9370   -0.0230 C   0  0  0  0  0  0  0  0  0  0  0  0
   28.7990   -6.2780    0.3720 O   0  0  0  0  0  0  0  0  0  0  0  0
   30.1010   -6.7250    0.4380 C   0  0  0  0  0  0  0  0  0  0  0  0
   31.1870   -5.8900    0.1750 C   0  0  0  0  0  0  0  0  0  0  0  0
   32.4780   -6.4030    0.2510 C   0  0  0  0  0  0  0  0  0  0  0  0
   32.6890   -7.7430    0.5900 C   0  0  0  0  0  0  0  0  0  0  0  0
   34.1010   -8.3000    0.6700 C   0  0  0  0  0  0  0  0  0  0  0  0
   34.2570   -9.2260   -0.4540 N   0  0  0  0  0  0  0  0  0  0  0  0
   34.1690   -8.8780   -1.7860 C   0  0  0  0  0  0  0  0  0  0  0  0
   34.3960   -9.9840   -2.5420 C   0  0  0  0  0  0  0  0  0  0  0  0
   34.6370  -11.0670   -1.6730 C   0  0  0  0  0  0  0  0  0  0  0  0
   34.9200  -12.4280   -1.8810 C   0  0  0  0  0  0  0  0  0  0  0  0
   35.1130  -13.2570   -0.7890 C   0  0  0  0  0  0  0  0  0  0  0  0
   35.0340  -12.7560    0.5470 C   0  0  0  0  0  0  0  0  0  0  0  0
   35.2510  -13.6230    1.7100 C   0  0  0  0  0  0  0  0  0  0  0  0
   34.9380  -13.3130    2.8640 O   0  0  0  0  0  0  0  0  0  0  0  0
   35.8450  -14.8460    1.5510 N   0  0  0  0  0  0  0  0  0  0  0  0
   36.0520  -15.6820    2.6670 O   0  5  0  0  0  0  0  0  0  0  0  0
   34.7410  -11.4060    0.7470 C   0  0  0  0  0  0  0  0  0  0  0  0
   34.5490  -10.5850   -0.3710 C   0  0  0  0  0  0  0  0  0  0  0  0
   31.5920   -8.5660    0.8520 C   0  0  0  0  0  0  0  0  0  0  0  0
   30.2980   -8.0590    0.7780 C   0  0  0  0  0  0  0  0  0  0  0  0
   13.9690   -6.0380   -2.9840 N   0  0  0  0  0  0  0  0  0  0  0  0
   13.0580   -6.9730   -3.1160 N   0  0  0  0  0  0  0  0  0  0  0  0
    8.0210   -7.1000    0.1230 C   0  0  0  0  0  0  0  0  0  0  0  0
    7.9010   -5.6760    0.2730 C   0  0  0  0  0  0  0  0  0  0  0  0
    8.6840   -4.7850   -0.0410 O   0  0  0  0  0  0  0  0  0  0  0  0
    7.1190   -3.4050    2.1990 C   0  0  0  0  0  0  0  0  0  0  0  0
    7.8050   -3.9730    3.0180 O   0  0  0  0  0  0  0  0  0  0  0  0
    7.2250   -2.0470    2.1790 N   0  0  0  0  0  0  0  0  0  0  0  0
    4.4960   -1.9660    1.0510 H   0  0  0  0  0  0  0  0  0  0  0  0
    5.2300   -1.2060   -0.3810 H   0  0  0  0  0  0  0  0  0  0  0  0
    6.8340   -3.1360   -0.5650 H   0  0  0  0  0  0  0  0  0  0  0  0
    5.1480   -3.7000   -0.6490 H   0  0  0  0  0  0  0  0  0  0  0  0
    5.1920   -4.2460    1.7970 H   0  0  0  0  0  0  0  0  0  0  0  0
    5.7330   -9.4940    0.8760 H   0  0  0  0  0  0  0  0  0  0  0  0
    7.5590  -10.9320   -0.0050 H   0  0  0  0  0  0  0  0  0  0  0  0
    9.6730   -9.9230   -0.7920 H   0  0  0  0  0  0  0  0  0  0  0  0
   10.5010   -6.4080   -0.3860 H   0  0  0  0  0  0  0  0  0  0  0  0
   11.4920   -8.8610   -1.4510 H   0  0  0  0  0  0  0  0  0  0  0  0
   10.5770   -8.0400   -2.7380 H   0  0  0  0  0  0  0  0  0  0  0  0
   12.3150   -5.6960   -0.2250 H   0  0  0  0  0  0  0  0  0  0  0  0
   14.8380   -3.6490   -2.1230 H   0  0  0  0  0  0  0  0  0  0  0  0
   14.0980   -3.8100   -0.5130 H   0  0  0  0  0  0  0  0  0  0  0  0
   16.4070   -5.5120   -1.6150 H   0  0  0  0  0  0  0  0  0  0  0  0
   15.6350   -5.7530   -0.0300 H   0  0  0  0  0  0  0  0  0  0  0  0
   17.7530   -5.0990    1.0560 H   0  0  0  0  0  0  0  0  0  0  0  0
   18.4600   -4.8970   -0.5650 H   0  0  0  0  0  0  0  0  0  0  0  0
   18.1750   -2.7310    1.5640 H   0  0  0  0  0  0  0  0  0  0  0  0
   18.8070   -2.4700   -0.0790 H   0  0  0  0  0  0  0  0  0  0  0  0
   20.8470   -1.7960    0.7760 H   0  0  0  0  0  0  0  0  0  0  0  0
   20.4000   -2.0990    2.4720 H   0  0  0  0  0  0  0  0  0  0  0  0
   22.1850   -4.0620    2.2420 H   0  0  0  0  0  0  0  0  0  0  0  0
   22.7050   -2.3950    2.5860 H   0  0  0  0  0  0  0  0  0  0  0  0
   24.8480   -2.8940    1.5410 H   0  0  0  0  0  0  0  0  0  0  0  0
   24.2820   -4.5480    1.2050 H   0  0  0  0  0  0  0  0  0  0  0  0
   24.8180   -2.5510   -1.0170 H   0  0  0  0  0  0  0  0  0  0  0  0
   24.6710   -4.3210   -1.1320 H   0  0  0  0  0  0  0  0  0  0  0  0
   26.5150   -5.2010    0.9490 H   0  0  0  0  0  0  0  0  0  0  0  0
   26.5290   -5.6480   -0.7740 H   0  0  0  0  0  0  0  0  0  0  0  0
   28.7960   -4.2080    0.6940 H   0  0  0  0  0  0  0  0  0  0  0  0
   28.8100   -4.7070   -1.0140 H   0  0  0  0  0  0  0  0  0  0  0  0
   31.0270   -4.8540   -0.0850 H   0  0  0  0  0  0  0  0  0  0  0  0
   33.3230   -5.7620    0.0470 H   0  0  0  0  0  0  0  0  0  0  0  0
   34.2430   -8.8280    1.6130 H   0  0  0  0  0  0  0  0  0  0  0  0
   34.8280   -7.4910    0.5930 H   0  0  0  0  0  0  0  0  0  0  0  0
   33.9550   -7.8900   -2.1650 H   0  0  0  0  0  0  0  0  0  0  0  0
   34.3920  -10.0260   -3.6210 H   0  0  0  0  0  0  0  0  0  0  0  0
   34.9860  -12.8240   -2.8840 H   0  0  0  0  0  0  0  0  0  0  0  0
   35.3280  -14.3030   -0.9500 H   0  0  0  0  0  0  0  0  0  0  0  0
   36.1350  -15.1500    0.6330 H   0  0  0  0  0  0  0  0  0  0  0  0
   34.6640  -11.0020    1.7460 H   0  0  0  0  0  0  0  0  0  0  0  0
   31.7490   -9.6020    1.1140 H   0  0  0  0  0  0  0  0  0  0  0  0
   29.4520   -8.6980    0.9830 H   0  0  0  0  0  0  0  0  0  0  0  0
    7.8780   -1.6080    2.8130 H   0  0  0  0  0  0  0  0  0  0  0  0
  1  2  2  0  0  0  0
  2  3  1  0  0  0  0
  2 61  1  0  0  0  0
  3  4  1  0  0  0  0
  3 62  1  0  0  0  0
  3 63  1  0  0  0  0
  4  5  1  0  0  0  0
  4 64  1  0  0  0  0
  4 65  1  0  0  0  0
  5  6  1  0  0  0  0
  5 59  1  0  0  0  0
  5 66  1  0  0  0  0
  6  7  1  0  0  0  0
  6 57  1  0  0  0  0
  7  8  2  0  0  0  0
  7  9  1  0  0  0  0
  9 10  1  0  0  0  0
  9 56  2  0  0  0  0
 10 11  2  0  0  0  0
 10 67  1  0  0  0  0
 11 12  1  0  0  0  0
 11 68  1  0  0  0  0
 12 13  2  0  0  0  0
 12 69  1  0  0  0  0
 13 14  1  0  0  0  0
 13 56  1  0  0  0  0
 14 15  1  0  0  0  0
 14 70  1  0  0  0  0
 15 16  1  0  0  0  0
 15 71  1  0  0  0  0
 15 72  1  0  0  0  0
 16 17  2  0  0  0  0
 16 55  1  0  0  0  0
 17 18  1  0  0  0  0
 17 73  1  0  0  0  0
 18 19  1  0  0  0  0
 18 54  1  0  0  0  0
 19 20  1  0  0  0  0
 19 74  1  0  0  0  0
 19 75  1  0  0  0  0
 20 21  1  0  0  0  0
 20 76  1  0  0  0  0
 20 77  1  0  0  0  0
 21 22  1  0  0  0  0
 22 23  1  0  0  0  0
 22 78  1  0  0  0  0
 22 79  1  0  0  0  0
 23 24  1  0  0  0  0
 23 80  1  0  0  0  0
 23 81  1  0  0  0  0
 24 25  1  0  0  0  0
 25 26  1  0  0  0  0
 25 82  1  0  0  0  0
 25 83  1  0  0  0  0
 26 27  1  0  0  0  0
 26 84  1  0  0  0  0
 26 85  1  0  0  0  0
 27 28  1  0  0  0  0
 28 29  1  0  0  0  0
 28 86  1  0  0  0  0
 28 87  1  0  0  0  0
 29 30  1  0  0  0  0
 29 88  1  0  0  0  0
 29 89  1  0  0  0  0
 30 31  1  0  0  0  0
 31 32  1  0  0  0  0
 31 90  1  0  0  0  0
 31 91  1  0  0  0  0
 32 33  1  0  0  0  0
 32 92  1  0  0  0  0
 32 93  1  0  0  0  0
 33 34  1  0  0  0  0
 34 35  1  0  0  0  0
 34 53  2  0  0  0  0
 35 36  2  0  0  0  0
 35 94  1  0  0  0  0
 36 37  1  0  0  0  0
 36 95  1  0  0  0  0
 37 38  1  0  0  0  0
 37 52  2  0  0  0  0
 38 39  1  0  0  0  0
 38 96  1  0  0  0  0
 38 97  1  0  0  0  0
 39 40  1  0  0  0  0
 39 51  1  0  0  0  0
 40 41  2  0  0  0  0
 40 98  1  0  0  0  0
 41 42  1  0  0  0  0
 41 99  1  0  0  0  0
 42 43  1  0  0  0  0
 42 51  2  0  0  0  0
 43 44  2  0  0  0  0
 43100  1  0  0  0  0
 44 45  1  0  0  0  0
 44101  1  0  0  0  0
 45 46  1  0  0  0  0
 45 50  2  0  0  0  0
 46 47  2  0  0  0  0
 46 48  1  0  0  0  0
 48 49  1  0  0  0  0
 48102  1  0  0  0  0
 50 51  1  0  0  0  0
 50103  1  0  0  0  0
 52 53  1  0  0  0  0
 52104  1  0  0  0  0
 53105  1  0  0  0  0
 54 55  2  0  0  0  0
 56 57  1  0  0  0  0
 57 58  2  0  0  0  0
 59 60  2  0  0  0  0
 59 61  1  0  0  0  0
 61106  1  0  0  0  0
M  CHG  1  49  -1
M  END
>  <Compound ID>
4607

>  <Uniprot>
Q9BY41

>  <Target>
HDAC8

>  <E3 ligase>
CRBN

>  <Article DOI>
10.1021/acs.jmedchem.2c00739

>  <Molecular Weight>
838.875

>  <Exact Mass>
838.32861

>  <XLogP3>
1.4299999

>  <Heavy Atom Count>
61

>  <Ring Count>
7

>  <Hydrogen Bond Acceptor Count>
16

>  <Hydrogen Bond Donor Count>
4

>  <Rotatable Bond Count>
23

>  <Topological Polar Surface Area>
226.7

>  <Molecular Formula>
C42H46N8O11

>  <InChI>
InChI=1S/C42H46N8O11/c51-37-11-10-35(40(53)44-37)50-41(54)33-2-1-3-34(38(33)42(50)55)43-25-31-27-49(47-45-31)14-15-57-16-17-58-18-19-59-20-21-60-22-23-61-32-8-4-28(5-9-32)26-48-13-12-29-6-7-30(24-36(29)48)39(52)46-56/h1-9,12-13,24,27,35,43,56H,10-11,14-23,25-26H2,(H,46,52)(H,44,51,53)

>  <InChI Key>
AENGTLLILOQEFO-UHFFFAOYSA-N

>  <Percent degradation (%)>
39.4/80.2

>  <Assay (Percent degradation)>
% HDAC8 protein degradation in A549 cells at 200/2000 nM for 20 h

$$$$
4608
  MOE2018           3D

 90 96  0  0  1  0  0  0  0  0999 V2000
    3.0330   -9.9980   -1.8830 O   0  0  0  0  0  0  0  0  0  0  0  0
    3.4660   -8.8970   -1.6590 C   0  0  0  0  0  0  0  0  0  0  0  0
    2.9530   -8.0090   -0.5400 C   0  0  0  0  0  0  0  0  0  0  0  0
    4.1550   -7.2320    0.0460 C   0  0  0  0  0  0  0  0  0  0  0  0
    4.7410   -6.3730   -1.1040 C   0  0  1  0  0  0  0  0  0  0  0  0
    5.9380   -5.6870   -0.5980 N   0  0  0  0  0  0  0  0  0  0  0  0
    6.0680   -4.3120   -0.5380 C   0  0  0  0  0  0  0  0  0  0  0  0
    5.1400   -3.5610   -0.7940 O   0  0  0  0  0  0  0  0  0  0  0  0
    7.4170   -4.0040   -0.1280 C   0  0  0  0  0  0  0  0  0  0  0  0
    8.0630   -2.7870    0.0850 C   0  0  0  0  0  0  0  0  0  0  0  0
    9.4020   -2.8010    0.4880 C   0  0  0  0  0  0  0  0  0  0  0  0
   10.0780   -4.0090    0.6740 C   0  0  0  0  0  0  0  0  0  0  0  0
    9.4140   -5.2280    0.4580 C   0  0  0  0  0  0  0  0  0  0  0  0
   10.0440   -6.4600    0.6290 N   0  0  0  0  0  0  0  0  0  0  0  0
   11.3650   -6.6770    1.2340 C   0  0  0  0  0  0  0  0  0  0  0  0
   12.3590   -6.7070    0.0690 C   0  0  0  0  0  0  0  0  0  0  0  0
   13.7310   -6.7510    0.7000 C   0  0  0  0  0  0  0  0  0  0  0  0
   14.6850   -5.8080    0.6010 C   0  0  0  0  0  0  0  0  0  0  0  0
   15.7070   -6.2690    1.3210 N   0  0  0  0  0  0  0  0  0  0  0  0
   17.0000   -5.6260    1.5230 C   0  0  0  0  0  0  0  0  0  0  0  0
   17.9200   -6.1260    0.3890 C   0  0  0  0  0  0  0  0  0  0  0  0
   19.2900   -5.4590    0.5910 C   0  0  0  0  0  0  0  0  0  0  0  0
   20.2710   -5.9280   -0.4920 C   0  0  0  0  0  0  0  0  0  0  0  0
   21.6460   -5.2800   -0.3140 C   0  0  0  0  0  0  0  0  0  0  0  0
   22.4510   -5.8200   -1.3820 O   0  0  0  0  0  0  0  0  0  0  0  0
   23.7860   -5.5440   -1.5730 C   0  0  0  0  0  0  0  0  0  0  0  0
   24.4740   -4.6140   -0.7930 C   0  0  0  0  0  0  0  0  0  0  0  0
   25.8250   -4.3850   -1.0370 C   0  0  0  0  0  0  0  0  0  0  0  0
   26.4890   -5.0780   -2.0520 C   0  0  0  0  0  0  0  0  0  0  0  0
   27.9640   -4.8240   -2.3190 C   0  0  0  0  0  0  0  0  0  0  0  0
   28.6970   -5.2790   -1.1360 N   0  0  0  0  0  0  0  0  0  0  0  0
   28.7740   -6.5880   -0.7080 C   0  0  0  0  0  0  0  0  0  0  0  0
   29.5540   -6.6380    0.4030 C   0  0  0  0  0  0  0  0  0  0  0  0
   29.9890   -5.3290    0.6930 C   0  0  0  0  0  0  0  0  0  0  0  0
   30.7990   -4.7820    1.7030 C   0  0  0  0  0  0  0  0  0  0  0  0
   31.0480   -3.4200    1.7110 C   0  0  0  0  0  0  0  0  0  0  0  0
   30.5010   -2.5590    0.7100 C   0  0  0  0  0  0  0  0  0  0  0  0
   30.7760   -1.1190    0.7010 C   0  0  0  0  0  0  0  0  0  0  0  0
   30.1060   -0.2970    0.0690 O   0  0  0  0  0  0  0  0  0  0  0  0
   31.8390   -0.6210    1.4070 N   0  0  0  0  0  0  0  0  0  0  0  0
   32.1080    0.7620    1.4010 O   0  5  0  0  0  0  0  0  0  0  0  0
   29.6860   -3.1060   -0.2810 C   0  0  0  0  0  0  0  0  0  0  0  0
   29.4480   -4.4860   -0.2720 C   0  0  0  0  0  0  0  0  0  0  0  0
   25.7860   -6.0050   -2.8250 C   0  0  0  0  0  0  0  0  0  0  0  0
   24.4350   -6.2380   -2.5880 C   0  0  0  0  0  0  0  0  0  0  0  0
   15.3970   -7.4620    1.8460 N   0  0  0  0  0  0  0  0  0  0  0  0
   14.1790   -7.7660    1.4670 N   0  0  0  0  0  0  0  0  0  0  0  0
    8.0750   -5.2050    0.0520 C   0  0  0  0  0  0  0  0  0  0  0  0
    7.1490   -6.2650   -0.2390 C   0  0  0  0  0  0  0  0  0  0  0  0
    7.3030   -7.4800   -0.1840 O   0  0  0  0  0  0  0  0  0  0  0  0
    5.1050   -7.2730   -2.2970 C   0  0  0  0  0  0  0  0  0  0  0  0
    5.9270   -6.9910   -3.1410 O   0  0  0  0  0  0  0  0  0  0  0  0
    4.4490   -8.4510   -2.4830 N   0  0  0  0  0  0  0  0  0  0  0  0
    2.2160   -7.3080   -0.9330 H   0  0  0  0  0  0  0  0  0  0  0  0
    2.4950   -8.6210    0.2370 H   0  0  0  0  0  0  0  0  0  0  0  0
    4.9080   -7.9290    0.4140 H   0  0  0  0  0  0  0  0  0  0  0  0
    3.8240   -6.5900    0.8620 H   0  0  0  0  0  0  0  0  0  0  0  0
    4.0080   -5.6410   -1.4420 H   0  0  0  0  0  0  0  0  0  0  0  0
    7.5400   -1.8530   -0.0580 H   0  0  0  0  0  0  0  0  0  0  0  0
    9.9190   -1.8680    0.6570 H   0  0  0  0  0  0  0  0  0  0  0  0
   11.1120   -4.0060    0.9840 H   0  0  0  0  0  0  0  0  0  0  0  0
    9.5470   -7.2780    0.3080 H   0  0  0  0  0  0  0  0  0  0  0  0
   11.6070   -5.8640    1.9180 H   0  0  0  0  0  0  0  0  0  0  0  0
   11.3840   -7.6240    1.7740 H   0  0  0  0  0  0  0  0  0  0  0  0
   12.2520   -5.8120   -0.5450 H   0  0  0  0  0  0  0  0  0  0  0  0
   12.1960   -7.5920   -0.5470 H   0  0  0  0  0  0  0  0  0  0  0  0
   14.6340   -4.8770    0.0550 H   0  0  0  0  0  0  0  0  0  0  0  0
   16.8940   -4.5420    1.4720 H   0  0  0  0  0  0  0  0  0  0  0  0
   17.4120   -5.9050    2.4930 H   0  0  0  0  0  0  0  0  0  0  0  0
   18.0210   -7.2100    0.4400 H   0  0  0  0  0  0  0  0  0  0  0  0
   17.5060   -5.8450   -0.5790 H   0  0  0  0  0  0  0  0  0  0  0  0
   19.6810   -5.7280    1.5720 H   0  0  0  0  0  0  0  0  0  0  0  0
   19.1760   -4.3770    0.5300 H   0  0  0  0  0  0  0  0  0  0  0  0
   19.8750   -5.6580   -1.4710 H   0  0  0  0  0  0  0  0  0  0  0  0
   20.3780   -7.0110   -0.4300 H   0  0  0  0  0  0  0  0  0  0  0  0
   22.0700   -5.5410    0.6560 H   0  0  0  0  0  0  0  0  0  0  0  0
   21.5730   -4.1960   -0.3990 H   0  0  0  0  0  0  0  0  0  0  0  0
   23.9630   -4.0770   -0.0070 H   0  0  0  0  0  0  0  0  0  0  0  0
   26.3640   -3.6660   -0.4370 H   0  0  0  0  0  0  0  0  0  0  0  0
   28.1370   -3.7600   -2.4810 H   0  0  0  0  0  0  0  0  0  0  0  0
   28.2870   -5.3830   -3.1970 H   0  0  0  0  0  0  0  0  0  0  0  0
   28.2940   -7.4330   -1.1780 H   0  0  0  0  0  0  0  0  0  0  0  0
   29.7980   -7.5260    0.9660 H   0  0  0  0  0  0  0  0  0  0  0  0
   31.2230   -5.4180    2.4660 H   0  0  0  0  0  0  0  0  0  0  0  0
   31.6680   -3.0000    2.4890 H   0  0  0  0  0  0  0  0  0  0  0  0
   32.4320   -1.2470    1.9330 H   0  0  0  0  0  0  0  0  0  0  0  0
   29.2470   -2.4770   -1.0410 H   0  0  0  0  0  0  0  0  0  0  0  0
   26.2940   -6.5440   -3.6110 H   0  0  0  0  0  0  0  0  0  0  0  0
   23.8940   -6.9540   -3.1890 H   0  0  0  0  0  0  0  0  0  0  0  0
    4.7070   -9.0230   -3.2750 H   0  0  0  0  0  0  0  0  0  0  0  0
  1  2  2  0  0  0  0
  2  3  1  0  0  0  0
  2 53  1  0  0  0  0
  3  4  1  0  0  0  0
  3 54  1  0  0  0  0
  3 55  1  0  0  0  0
  4  5  1  0  0  0  0
  4 56  1  0  0  0  0
  4 57  1  0  0  0  0
  5  6  1  0  0  0  0
  5 51  1  0  0  0  0
  5 58  1  0  0  0  0
  6  7  1  0  0  0  0
  6 49  1  0  0  0  0
  7  8  2  0  0  0  0
  7  9  1  0  0  0  0
  9 10  1  0  0  0  0
  9 48  2  0  0  0  0
 10 11  2  0  0  0  0
 10 59  1  0  0  0  0
 11 12  1  0  0  0  0
 11 60  1  0  0  0  0
 12 13  2  0  0  0  0
 12 61  1  0  0  0  0
 13 14  1  0  0  0  0
 13 48  1  0  0  0  0
 14 15  1  0  0  0  0
 14 62  1  0  0  0  0
 15 16  1  0  0  0  0
 15 63  1  0  0  0  0
 15 64  1  0  0  0  0
 16 17  1  0  0  0  0
 16 65  1  0  0  0  0
 16 66  1  0  0  0  0
 17 18  2  0  0  0  0
 17 47  1  0  0  0  0
 18 19  1  0  0  0  0
 18 67  1  0  0  0  0
 19 20  1  0  0  0  0
 19 46  1  0  0  0  0
 20 21  1  0  0  0  0
 20 68  1  0  0  0  0
 20 69  1  0  0  0  0
 21 22  1  0  0  0  0
 21 70  1  0  0  0  0
 21 71  1  0  0  0  0
 22 23  1  0  0  0  0
 22 72  1  0  0  0  0
 22 73  1  0  0  0  0
 23 24  1  0  0  0  0
 23 74  1  0  0  0  0
 23 75  1  0  0  0  0
 24 25  1  0  0  0  0
 24 76  1  0  0  0  0
 24 77  1  0  0  0  0
 25 26  1  0  0  0  0
 26 27  1  0  0  0  0
 26 45  2  0  0  0  0
 27 28  2  0  0  0  0
 27 78  1  0  0  0  0
 28 29  1  0  0  0  0
 28 79  1  0  0  0  0
 29 30  1  0  0  0  0
 29 44  2  0  0  0  0
 30 31  1  0  0  0  0
 30 80  1  0  0  0  0
 30 81  1  0  0  0  0
 31 32  1  0  0  0  0
 31 43  1  0  0  0  0
 32 33  2  0  0  0  0
 32 82  1  0  0  0  0
 33 34  1  0  0  0  0
 33 83  1  0  0  0  0
 34 35  1  0  0  0  0
 34 43  2  0  0  0  0
 35 36  2  0  0  0  0
 35 84  1  0  0  0  0
 36 37  1  0  0  0  0
 36 85  1  0  0  0  0
 37 38  1  0  0  0  0
 37 42  2  0  0  0  0
 38 39  2  0  0  0  0
 38 40  1  0  0  0  0
 40 41  1  0  0  0  0
 40 86  1  0  0  0  0
 42 43  1  0  0  0  0
 42 87  1  0  0  0  0
 44 45  1  0  0  0  0
 44 88  1  0  0  0  0
 45 89  1  0  0  0  0
 46 47  2  0  0  0  0
 48 49  1  0  0  0  0
 49 50  2  0  0  0  0
 51 52  2  0  0  0  0
 51 53  1  0  0  0  0
 53 90  1  0  0  0  0
M  CHG  1  41  -1
M  END
>  <Compound ID>
4608

>  <Uniprot>
Q9BY41

>  <Target>
HDAC8

>  <E3 ligase>
CRBN

>  <Article DOI>
10.1021/acs.jmedchem.2c00739

>  <Molecular Weight>
718.771

>  <Exact Mass>
718.28632

>  <XLogP3>
3.55

>  <Heavy Atom Count>
53

>  <Ring Count>
7

>  <Hydrogen Bond Acceptor Count>
12

>  <Hydrogen Bond Donor Count>
4

>  <Rotatable Bond Count>
15

>  <Topological Polar Surface Area>
189.78

>  <Molecular Formula>
C38H38N8O7

>  <InChI>
InChI=1S/C38H38N8O7/c47-33-14-13-31(36(49)40-33)46-37(50)29-5-4-6-30(34(29)38(46)51)39-17-15-27-23-45(43-41-27)18-2-1-3-20-53-28-11-7-24(8-12-28)22-44-19-16-25-9-10-26(21-32(25)44)35(48)42-52/h4-12,16,19,21,23,31,39,52H,1-3,13-15,17-18,20,22H2,(H,42,48)(H,40,47,49)

>  <InChI Key>
JRVBSAJUHBHIBB-UHFFFAOYSA-N

>  <Percent degradation (%)>
28.0/78.4

>  <Assay (Percent degradation)>
% HDAC8 protein degradation in A549 cells at 200/2000 nM for 20 h

$$$$
4609
  MOE2018           3D

 88 94  0  0  1  0  0  0  0  0999 V2000
    2.4240   -9.7520   -1.6720 O   0  0  0  0  0  0  0  0  0  0  0  0
    2.9410   -8.7710   -1.2040 C   0  0  0  0  0  0  0  0  0  0  0  0
    2.9330   -8.4490    0.2790 C   0  0  0  0  0  0  0  0  0  0  0  0
    4.2890   -7.7960    0.6360 C   0  0  0  0  0  0  0  0  0  0  0  0
    4.3980   -6.4960   -0.2030 C   0  0  1  0  0  0  0  0  0  0  0  0
    5.7160   -5.8980    0.0530 N   0  0  0  0  0  0  0  0  0  0  0  0
    5.8950   -4.6420    0.6010 C   0  0  0  0  0  0  0  0  0  0  0  0
    4.9610   -3.9810    1.0280 O   0  0  0  0  0  0  0  0  0  0  0  0
    7.3040   -4.3320    0.5670 C   0  0  0  0  0  0  0  0  0  0  0  0
    8.0130   -3.2060    0.9850 C   0  0  0  0  0  0  0  0  0  0  0  0
    9.4020   -3.1900    0.8230 C   0  0  0  0  0  0  0  0  0  0  0  0
   10.0650   -4.2810    0.2560 C   0  0  0  0  0  0  0  0  0  0  0  0
    9.3380   -5.4080   -0.1620 C   0  0  0  0  0  0  0  0  0  0  0  0
    9.9580   -6.5260   -0.7170 N   0  0  0  0  0  0  0  0  0  0  0  0
   11.2580   -6.4680   -1.4000 C   0  0  0  0  0  0  0  0  0  0  0  0
   12.2790   -6.9920   -0.3860 C   0  0  0  0  0  0  0  0  0  0  0  0
   13.6340   -6.7610   -1.0110 C   0  0  0  0  0  0  0  0  0  0  0  0
   14.5610   -5.8770   -0.6020 C   0  0  0  0  0  0  0  0  0  0  0  0
   15.5780   -6.0200   -1.4520 N   0  0  0  0  0  0  0  0  0  0  0  0
   16.8500   -5.3230   -1.4140 C   0  0  0  0  0  0  0  0  0  0  0  0
   17.8060   -6.2740   -0.6860 C   0  0  0  0  0  0  0  0  0  0  0  0
   19.0170   -5.5460   -0.5620 O   0  0  0  0  0  0  0  0  0  0  0  0
   20.0280   -6.2940    0.1000 C   0  0  0  0  0  0  0  0  0  0  0  0
   21.3080   -5.4650    0.1640 C   0  0  0  0  0  0  0  0  0  0  0  0
   22.2610   -6.2990    0.8660 O   0  0  0  0  0  0  0  0  0  0  0  0
   23.5840   -5.9770    1.0610 C   0  0  0  0  0  0  0  0  0  0  0  0
   24.1290   -4.7720    0.6190 C   0  0  0  0  0  0  0  0  0  0  0  0
   25.4780   -4.5110    0.8400 C   0  0  0  0  0  0  0  0  0  0  0  0
   26.2810   -5.4450    1.4990 C   0  0  0  0  0  0  0  0  0  0  0  0
   27.7570   -5.1600    1.7290 C   0  0  0  0  0  0  0  0  0  0  0  0
   28.4370   -5.2390    0.4300 N   0  0  0  0  0  0  0  0  0  0  0  0
   28.2000   -6.1670   -0.5650 C   0  0  0  0  0  0  0  0  0  0  0  0
   29.0720   -5.9490   -1.5830 C   0  0  0  0  0  0  0  0  0  0  0  0
   29.8950   -4.8610   -1.2300 C   0  0  0  0  0  0  0  0  0  0  0  0
   30.9620   -4.2080   -1.8700 C   0  0  0  0  0  0  0  0  0  0  0  0
   31.5930   -3.1520   -1.2350 C   0  0  0  0  0  0  0  0  0  0  0  0
   31.1780   -2.7070    0.0580 C   0  0  0  0  0  0  0  0  0  0  0  0
   31.8380   -1.5890    0.7400 C   0  0  0  0  0  0  0  0  0  0  0  0
   31.6850   -1.3300    1.9380 O   0  0  0  0  0  0  0  0  0  0  0  0
   32.6720   -0.7550    0.0440 N   0  0  0  0  0  0  0  0  0  0  0  0
   33.3220    0.3070    0.7030 O   0  5  0  0  0  0  0  0  0  0  0  0
   30.1180   -3.3610    0.6890 C   0  0  0  0  0  0  0  0  0  0  0  0
   29.4940   -4.4270    0.0290 C   0  0  0  0  0  0  0  0  0  0  0  0
   25.7200   -6.6460    1.9400 C   0  0  0  0  0  0  0  0  0  0  0  0
   24.3720   -6.9130    1.7220 C   0  0  0  0  0  0  0  0  0  0  0  0
   15.2900   -6.9650   -2.3560 N   0  0  0  0  0  0  0  0  0  0  0  0
   14.0900   -7.4250   -2.0920 N   0  0  0  0  0  0  0  0  0  0  0  0
    7.9480   -5.4150    0.0020 C   0  0  0  0  0  0  0  0  0  0  0  0
    6.9550   -6.4000   -0.3260 C   0  0  0  0  0  0  0  0  0  0  0  0
    7.0840   -7.5080   -0.8340 O   0  0  0  0  0  0  0  0  0  0  0  0
    4.2390   -6.8200   -1.6970 C   0  0  0  0  0  0  0  0  0  0  0  0
    4.6700   -6.1330   -2.5960 O   0  0  0  0  0  0  0  0  0  0  0  0
    3.5320   -7.9190   -2.0810 N   0  0  0  0  0  0  0  0  0  0  0  0
    2.1200   -7.7580    0.5030 H   0  0  0  0  0  0  0  0  0  0  0  0
    2.8010   -9.3650    0.8550 H   0  0  0  0  0  0  0  0  0  0  0  0
    5.1070   -8.4720    0.3880 H   0  0  0  0  0  0  0  0  0  0  0  0
    4.3230   -7.5600    1.7000 H   0  0  0  0  0  0  0  0  0  0  0  0
    3.6100   -5.7960    0.0770 H   0  0  0  0  0  0  0  0  0  0  0  0
    7.5000   -2.3640    1.4250 H   0  0  0  0  0  0  0  0  0  0  0  0
    9.9670   -2.3260    1.1390 H   0  0  0  0  0  0  0  0  0  0  0  0
   11.1380   -4.2580    0.1390 H   0  0  0  0  0  0  0  0  0  0  0  0
    9.4910   -7.4190   -0.6460 H   0  0  0  0  0  0  0  0  0  0  0  0
   11.2490   -7.0970   -2.2900 H   0  0  0  0  0  0  0  0  0  0  0  0
   11.4940   -5.4420   -1.6820 H   0  0  0  0  0  0  0  0  0  0  0  0
   12.1210   -8.0550   -0.2030 H   0  0  0  0  0  0  0  0  0  0  0  0
   12.1960   -6.4460    0.5530 H   0  0  0  0  0  0  0  0  0  0  0  0
   14.4960   -5.1970    0.2350 H   0  0  0  0  0  0  0  0  0  0  0  0
   17.2060   -5.1220   -2.4240 H   0  0  0  0  0  0  0  0  0  0  0  0
   16.7560   -4.3840   -0.8680 H   0  0  0  0  0  0  0  0  0  0  0  0
   17.9620   -7.1820   -1.2690 H   0  0  0  0  0  0  0  0  0  0  0  0
   17.4130   -6.5360    0.2960 H   0  0  0  0  0  0  0  0  0  0  0  0
   19.6990   -6.5350    1.1110 H   0  0  0  0  0  0  0  0  0  0  0  0
   20.2180   -7.2160   -0.4500 H   0  0  0  0  0  0  0  0  0  0  0  0
   21.1360   -4.5370    0.7100 H   0  0  0  0  0  0  0  0  0  0  0  0
   21.6660   -5.2360   -0.8400 H   0  0  0  0  0  0  0  0  0  0  0  0
   23.5100   -4.0480    0.1100 H   0  0  0  0  0  0  0  0  0  0  0  0
   25.9070   -3.5800    0.5000 H   0  0  0  0  0  0  0  0  0  0  0  0
   28.1750   -5.8990    2.4120 H   0  0  0  0  0  0  0  0  0  0  0  0
   27.8810   -4.1630    2.1520 H   0  0  0  0  0  0  0  0  0  0  0  0
   27.4450   -6.9390   -0.5380 H   0  0  0  0  0  0  0  0  0  0  0  0
   29.1250   -6.5120   -2.5030 H   0  0  0  0  0  0  0  0  0  0  0  0
   31.2870   -4.5270   -2.8490 H   0  0  0  0  0  0  0  0  0  0  0  0
   32.4160   -2.6540   -1.7270 H   0  0  0  0  0  0  0  0  0  0  0  0
   32.8210   -0.9020   -0.9440 H   0  0  0  0  0  0  0  0  0  0  0  0
   29.7850   -3.0500    1.6680 H   0  0  0  0  0  0  0  0  0  0  0  0
   26.3350   -7.3710    2.4520 H   0  0  0  0  0  0  0  0  0  0  0  0
   23.9400   -7.8420    2.0640 H   0  0  0  0  0  0  0  0  0  0  0  0
    3.4430   -8.1100   -3.0690 H   0  0  0  0  0  0  0  0  0  0  0  0
  1  2  2  0  0  0  0
  2  3  1  0  0  0  0
  2 53  1  0  0  0  0
  3  4  1  0  0  0  0
  3 54  1  0  0  0  0
  3 55  1  0  0  0  0
  4  5  1  0  0  0  0
  4 56  1  0  0  0  0
  4 57  1  0  0  0  0
  5  6  1  0  0  0  0
  5 51  1  0  0  0  0
  5 58  1  0  0  0  0
  6  7  1  0  0  0  0
  6 49  1  0  0  0  0
  7  8  2  0  0  0  0
  7  9  1  0  0  0  0
  9 10  1  0  0  0  0
  9 48  2  0  0  0  0
 10 11  2  0  0  0  0
 10 59  1  0  0  0  0
 11 12  1  0  0  0  0
 11 60  1  0  0  0  0
 12 13  2  0  0  0  0
 12 61  1  0  0  0  0
 13 14  1  0  0  0  0
 13 48  1  0  0  0  0
 14 15  1  0  0  0  0
 14 62  1  0  0  0  0
 15 16  1  0  0  0  0
 15 63  1  0  0  0  0
 15 64  1  0  0  0  0
 16 17  1  0  0  0  0
 16 65  1  0  0  0  0
 16 66  1  0  0  0  0
 17 18  2  0  0  0  0
 17 47  1  0  0  0  0
 18 19  1  0  0  0  0
 18 67  1  0  0  0  0
 19 20  1  0  0  0  0
 19 46  1  0  0  0  0
 20 21  1  0  0  0  0
 20 68  1  0  0  0  0
 20 69  1  0  0  0  0
 21 22  1  0  0  0  0
 21 70  1  0  0  0  0
 21 71  1  0  0  0  0
 22 23  1  0  0  0  0
 23 24  1  0  0  0  0
 23 72  1  0  0  0  0
 23 73  1  0  0  0  0
 24 25  1  0  0  0  0
 24 74  1  0  0  0  0
 24 75  1  0  0  0  0
 25 26  1  0  0  0  0
 26 27  1  0  0  0  0
 26 45  2  0  0  0  0
 27 28  2  0  0  0  0
 27 76  1  0  0  0  0
 28 29  1  0  0  0  0
 28 77  1  0  0  0  0
 29 30  1  0  0  0  0
 29 44  2  0  0  0  0
 30 31  1  0  0  0  0
 30 78  1  0  0  0  0
 30 79  1  0  0  0  0
 31 32  1  0  0  0  0
 31 43  1  0  0  0  0
 32 33  2  0  0  0  0
 32 80  1  0  0  0  0
 33 34  1  0  0  0  0
 33 81  1  0  0  0  0
 34 35  1  0  0  0  0
 34 43  2  0  0  0  0
 35 36  2  0  0  0  0
 35 82  1  0  0  0  0
 36 37  1  0  0  0  0
 36 83  1  0  0  0  0
 37 38  1  0  0  0  0
 37 42  2  0  0  0  0
 38 39  2  0  0  0  0
 38 40  1  0  0  0  0
 40 41  1  0  0  0  0
 40 84  1  0  0  0  0
 42 43  1  0  0  0  0
 42 85  1  0  0  0  0
 44 45  1  0  0  0  0
 44 86  1  0  0  0  0
 45 87  1  0  0  0  0
 46 47  2  0  0  0  0
 48 49  1  0  0  0  0
 49 50  2  0  0  0  0
 51 52  2  0  0  0  0
 51 53  1  0  0  0  0
 53 88  1  0  0  0  0
M  CHG  1  41  -1
M  END
>  <Compound ID>
4609

>  <Uniprot>
Q9BY41

>  <Target>
HDAC8

>  <E3 ligase>
CRBN

>  <Article DOI>
10.1021/acs.jmedchem.2c00739

>  <Molecular Weight>
720.74298

>  <Exact Mass>
720.26562

>  <XLogP3>
2.3299999

>  <Heavy Atom Count>
53

>  <Ring Count>
7

>  <Hydrogen Bond Acceptor Count>
13

>  <Hydrogen Bond Donor Count>
4

>  <Rotatable Bond Count>
15

>  <Topological Polar Surface Area>
199.00999

>  <Molecular Formula>
C37H36N8O8

>  <InChI>
InChI=1S/C37H36N8O8/c46-32-11-10-30(35(48)39-32)45-36(49)28-2-1-3-29(33(28)37(45)50)38-14-12-26-22-44(42-40-26)16-17-52-18-19-53-27-8-4-23(5-9-27)21-43-15-13-24-6-7-25(20-31(24)43)34(47)41-51/h1-9,13,15,20,22,30,38,51H,10-12,14,16-19,21H2,(H,41,47)(H,39,46,48)

>  <InChI Key>
JPODIJZXSNRXKE-UHFFFAOYSA-N

>  <Percent degradation (%)>
29.4/71.2

>  <Assay (Percent degradation)>
% HDAC8 protein degradation in A549 cells at 200/2000 nM for 20 h

$$$$
5394
  MOE2018           3D

100104  0  0  1  0  0  0  0  0999 V2000
   -1.6720   -1.6460    0.4170 O   0  0  0  0  0  0  0  0  0  0  0  0
   -1.3890   -2.6910    0.9920 C   0  0  0  0  0  0  0  0  0  0  0  0
    0.0190   -3.2800    0.9280 C   0  0  0  0  0  0  0  0  0  0  0  0
    1.0730   -2.3290    0.3300 C   0  0  0  0  0  0  0  0  0  0  0  0
    2.4680   -2.9720    0.3630 C   0  0  0  0  0  0  0  0  0  0  0  0
    3.5350   -2.0060   -0.1550 C   0  0  0  0  0  0  0  0  0  0  0  0
    4.7800   -2.7220   -0.0110 O   0  0  0  0  0  0  0  0  0  0  0  0
    6.0260   -2.1600   -0.1710 C   0  0  0  0  0  0  0  0  0  0  0  0
    7.1260   -2.9560    0.1320 C   0  0  0  0  0  0  0  0  0  0  0  0
    8.4090   -2.4320    0.0070 C   0  0  0  0  0  0  0  0  0  0  0  0
    8.5930   -1.1170   -0.4230 C   0  0  0  0  0  0  0  0  0  0  0  0
    9.9870   -0.5330   -0.5320 C   0  0  0  0  0  0  0  0  0  0  0  0
   10.2390    0.1810    0.8010 C   0  0  0  0  0  0  0  0  0  0  0  0
   11.5910    0.7500    0.7190 N   0  0  0  0  0  0  0  0  0  0  0  0
   11.8520    1.9780    0.1690 C   0  0  0  0  0  0  0  0  0  0  0  0
   10.9050    2.6000   -0.2960 O   0  0  0  0  0  0  0  0  0  0  0  0
   13.2230    2.5060    0.1610 C   0  0  0  0  0  0  0  0  0  0  0  0
   14.3420    1.6880    0.3920 C   0  0  0  0  0  0  0  0  0  0  0  0
   15.6230    2.2270    0.3820 C   0  0  0  0  0  0  0  0  0  0  0  0
   15.8090    3.5810    0.1320 C   0  0  0  0  0  0  0  0  0  0  0  0
   14.7160    4.4220   -0.1180 C   0  0  0  0  0  0  0  0  0  0  0  0
   14.9400    5.8460   -0.3980 C   0  0  0  0  0  0  0  0  0  0  0  0
   15.9900    6.4350   -0.1300 O   0  0  0  0  0  0  0  0  0  0  0  0
   13.9600    6.5850   -1.0020 N   0  0  0  0  0  0  0  0  0  0  0  0
   14.1750    7.9490   -1.2780 O   0  5  0  0  0  0  0  0  0  0  0  0
   13.4280    3.8680   -0.0910 C   0  0  0  0  0  0  0  0  0  0  0  0
    7.4820   -0.3300   -0.7330 C   0  0  0  0  0  0  0  0  0  0  0  0
    6.1960   -0.8470   -0.6100 C   0  0  0  0  0  0  0  0  0  0  0  0
   -2.2840   -3.3740    1.7060 N   0  0  0  0  0  0  0  0  0  0  0  0
   -3.6640   -2.9510    1.8990 C   0  0  0  0  0  0  0  0  0  0  0  0
   -4.5670   -3.7200    0.9320 C   0  0  0  0  0  0  0  0  0  0  0  0
   -6.0390   -3.3460    1.1560 C   0  0  0  0  0  0  0  0  0  0  0  0
   -6.9540   -4.1340    0.2090 C   0  0  0  0  0  0  0  0  0  0  0  0
   -8.4240   -3.7770    0.4730 C   0  0  0  0  0  0  0  0  0  0  0  0
   -9.3620   -4.5750   -0.4350 C   0  0  0  0  0  0  0  0  0  0  0  0
  -10.6980   -4.1540   -0.0310 N   0  0  0  0  0  0  0  0  0  0  0  0
  -11.8510   -4.6310   -0.6450 C   0  0  0  0  0  0  0  0  0  0  0  0
  -11.9030   -5.8930   -1.2580 C   0  0  0  0  0  0  0  0  0  0  0  0
  -13.0910   -6.3380   -1.8440 C   0  0  0  0  0  0  0  0  0  0  0  0
  -14.2390   -5.5390   -1.8240 C   0  0  0  0  0  0  0  0  0  0  0  0
  -14.1730   -4.2880   -1.2120 C   0  0  0  0  0  0  0  0  0  0  0  0
  -13.0030   -3.8360   -0.6340 C   0  0  0  0  0  0  0  0  0  0  0  0
  -13.2440   -2.5190   -0.1140 C   0  0  0  0  0  0  0  0  0  0  0  0
  -12.4720   -1.7340    0.4270 O   0  0  0  0  0  0  0  0  0  0  0  0
  -14.5710   -2.1980   -0.3670 N   0  0  0  0  0  0  0  0  0  0  0  0
  -15.2980   -1.0040    0.0860 C   0  0  2  0  0  0  0  0  0  0  0  0
  -14.7210    0.2210   -0.6710 C   0  0  0  0  0  0  0  0  0  0  0  0
  -15.4170    1.4760   -0.0950 C   0  0  0  0  0  0  0  0  0  0  0  0
  -15.0770    1.5630    1.3810 C   0  0  0  0  0  0  0  0  0  0  0  0
  -14.8680    2.6010    1.9540 O   0  0  0  0  0  0  0  0  0  0  0  0
  -15.0190    0.4320    2.1290 N   0  0  0  0  0  0  0  0  0  0  0  0
  -15.1260   -0.8200    1.6040 C   0  0  0  0  0  0  0  0  0  0  0  0
  -15.1260   -1.7260    2.4060 O   0  0  0  0  0  0  0  0  0  0  0  0
  -15.1630   -3.2510   -1.0390 C   0  0  0  0  0  0  0  0  0  0  0  0
  -16.3280   -3.2160   -1.4040 O   0  0  0  0  0  0  0  0  0  0  0  0
    0.3280   -3.5390    1.9410 H   0  0  0  0  0  0  0  0  0  0  0  0
   -0.0150   -4.1810    0.3160 H   0  0  0  0  0  0  0  0  0  0  0  0
    0.8070   -2.1050   -0.7030 H   0  0  0  0  0  0  0  0  0  0  0  0
    1.0910   -1.4060    0.9090 H   0  0  0  0  0  0  0  0  0  0  0  0
    2.4630   -3.8650   -0.2620 H   0  0  0  0  0  0  0  0  0  0  0  0
    2.7080   -3.2490    1.3900 H   0  0  0  0  0  0  0  0  0  0  0  0
    3.5470   -1.0920    0.4390 H   0  0  0  0  0  0  0  0  0  0  0  0
    3.3530   -1.7580   -1.2010 H   0  0  0  0  0  0  0  0  0  0  0  0
    6.9850   -3.9750    0.4620 H   0  0  0  0  0  0  0  0  0  0  0  0
    9.2660   -3.0450    0.2440 H   0  0  0  0  0  0  0  0  0  0  0  0
   10.0390    0.1750   -1.3590 H   0  0  0  0  0  0  0  0  0  0  0  0
   10.7210   -1.3250   -0.6840 H   0  0  0  0  0  0  0  0  0  0  0  0
   10.1780   -0.5290    1.6260 H   0  0  0  0  0  0  0  0  0  0  0  0
    9.5050    0.9730    0.9490 H   0  0  0  0  0  0  0  0  0  0  0  0
   12.3630    0.2120    1.0850 H   0  0  0  0  0  0  0  0  0  0  0  0
   14.2060    0.6330    0.5790 H   0  0  0  0  0  0  0  0  0  0  0  0
   16.4760    1.5920    0.5690 H   0  0  0  0  0  0  0  0  0  0  0  0
   16.8080    3.9910    0.1300 H   0  0  0  0  0  0  0  0  0  0  0  0
   13.0820    6.1520   -1.2500 H   0  0  0  0  0  0  0  0  0  0  0  0
   12.5750    4.5060   -0.2690 H   0  0  0  0  0  0  0  0  0  0  0  0
    7.6220    0.6860   -1.0700 H   0  0  0  0  0  0  0  0  0  0  0  0
    5.3380   -0.2380   -0.8520 H   0  0  0  0  0  0  0  0  0  0  0  0
   -1.9870   -4.2370    2.1390 H   0  0  0  0  0  0  0  0  0  0  0  0
   -3.9690   -3.1580    2.9250 H   0  0  0  0  0  0  0  0  0  0  0  0
   -3.7480   -1.8820    1.7040 H   0  0  0  0  0  0  0  0  0  0  0  0
   -4.2870   -3.4740   -0.0920 H   0  0  0  0  0  0  0  0  0  0  0  0
   -4.4400   -4.7900    1.0970 H   0  0  0  0  0  0  0  0  0  0  0  0
   -6.3120   -3.5730    2.1870 H   0  0  0  0  0  0  0  0  0  0  0  0
   -6.1680   -2.2790    0.9720 H   0  0  0  0  0  0  0  0  0  0  0  0
   -6.8080   -5.2020    0.3730 H   0  0  0  0  0  0  0  0  0  0  0  0
   -6.7030   -3.8870   -0.8230 H   0  0  0  0  0  0  0  0  0  0  0  0
   -8.5700   -2.7130    0.2870 H   0  0  0  0  0  0  0  0  0  0  0  0
   -8.6620   -4.0000    1.5130 H   0  0  0  0  0  0  0  0  0  0  0  0
   -9.2310   -5.6460   -0.2800 H   0  0  0  0  0  0  0  0  0  0  0  0
   -9.1820   -4.3350   -1.4830 H   0  0  0  0  0  0  0  0  0  0  0  0
  -10.7900   -3.4900    0.7240 H   0  0  0  0  0  0  0  0  0  0  0  0
  -11.0240   -6.5200   -1.2770 H   0  0  0  0  0  0  0  0  0  0  0  0
  -13.1230   -7.3080   -2.3170 H   0  0  0  0  0  0  0  0  0  0  0  0
  -15.1580   -5.8840   -2.2740 H   0  0  0  0  0  0  0  0  0  0  0  0
  -16.3630   -1.1090   -0.1210 H   0  0  0  0  0  0  0  0  0  0  0  0
  -13.6440    0.2850   -0.5140 H   0  0  0  0  0  0  0  0  0  0  0  0
  -14.9290    0.1340   -1.7380 H   0  0  0  0  0  0  0  0  0  0  0  0
  -16.4960    1.3920   -0.2220 H   0  0  0  0  0  0  0  0  0  0  0  0
  -15.0590    2.3670   -0.6100 H   0  0  0  0  0  0  0  0  0  0  0  0
  -14.8900    0.5240    3.1270 H   0  0  0  0  0  0  0  0  0  0  0  0
  1  2  2  0  0  0  0
  2  3  1  0  0  0  0
  2 29  1  0  0  0  0
  3  4  1  0  0  0  0
  3 56  1  0  0  0  0
  3 57  1  0  0  0  0
  4  5  1  0  0  0  0
  4 58  1  0  0  0  0
  4 59  1  0  0  0  0
  5  6  1  0  0  0  0
  5 60  1  0  0  0  0
  5 61  1  0  0  0  0
  6  7  1  0  0  0  0
  6 62  1  0  0  0  0
  6 63  1  0  0  0  0
  7  8  1  0  0  0  0
  8  9  1  0  0  0  0
  8 28  2  0  0  0  0
  9 10  2  0  0  0  0
  9 64  1  0  0  0  0
 10 11  1  0  0  0  0
 10 65  1  0  0  0  0
 11 12  1  0  0  0  0
 11 27  2  0  0  0  0
 12 13  1  0  0  0  0
 12 66  1  0  0  0  0
 12 67  1  0  0  0  0
 13 14  1  0  0  0  0
 13 68  1  0  0  0  0
 13 69  1  0  0  0  0
 14 15  1  0  0  0  0
 14 70  1  0  0  0  0
 15 16  2  0  0  0  0
 15 17  1  0  0  0  0
 17 18  1  0  0  0  0
 17 26  2  0  0  0  0
 18 19  2  0  0  0  0
 18 71  1  0  0  0  0
 19 20  1  0  0  0  0
 19 72  1  0  0  0  0
 20 21  2  0  0  0  0
 20 73  1  0  0  0  0
 21 22  1  0  0  0  0
 21 26  1  0  0  0  0
 22 23  2  0  0  0  0
 22 24  1  0  0  0  0
 24 25  1  0  0  0  0
 24 74  1  0  0  0  0
 26 75  1  0  0  0  0
 27 28  1  0  0  0  0
 27 76  1  0  0  0  0
 28 77  1  0  0  0  0
 29 30  1  0  0  0  0
 29 78  1  0  0  0  0
 30 31  1  0  0  0  0
 30 79  1  0  0  0  0
 30 80  1  0  0  0  0
 31 32  1  0  0  0  0
 31 81  1  0  0  0  0
 31 82  1  0  0  0  0
 32 33  1  0  0  0  0
 32 83  1  0  0  0  0
 32 84  1  0  0  0  0
 33 34  1  0  0  0  0
 33 85  1  0  0  0  0
 33 86  1  0  0  0  0
 34 35  1  0  0  0  0
 34 87  1  0  0  0  0
 34 88  1  0  0  0  0
 35 36  1  0  0  0  0
 35 89  1  0  0  0  0
 35 90  1  0  0  0  0
 36 37  1  0  0  0  0
 36 91  1  0  0  0  0
 37 38  1  0  0  0  0
 37 42  2  0  0  0  0
 38 39  2  0  0  0  0
 38 92  1  0  0  0  0
 39 40  1  0  0  0  0
 39 93  1  0  0  0  0
 40 41  2  0  0  0  0
 40 94  1  0  0  0  0
 41 42  1  0  0  0  0
 41 54  1  0  0  0  0
 42 43  1  0  0  0  0
 43 44  2  0  0  0  0
 43 45  1  0  0  0  0
 45 46  1  0  0  0  0
 45 54  1  0  0  0  0
 46 47  1  0  0  0  0
 46 52  1  0  0  0  0
 46 95  1  0  0  0  0
 47 48  1  0  0  0  0
 47 96  1  0  0  0  0
 47 97  1  0  0  0  0
 48 49  1  0  0  0  0
 48 98  1  0  0  0  0
 48 99  1  0  0  0  0
 49 50  2  0  0  0  0
 49 51  1  0  0  0  0
 51 52  1  0  0  0  0
 51100  1  0  0  0  0
 52 53  2  0  0  0  0
 54 55  2  0  0  0  0
M  CHG  1  25  -1
M  END
>  <Compound ID>
5394

>  <Uniprot>
Q9BY41

>  <Target>
HDAC8

>  <E3 ligase>
CRBN

>  <Article DOI>
10.1016/j.ejmech.2022

>  <Molecular Weight>
754.841

>  <Exact Mass>
754.33264

>  <XLogP3>
3.74

>  <Heavy Atom Count>
55

>  <Ring Count>
5

>  <Hydrogen Bond Acceptor Count>
10

>  <Hydrogen Bond Donor Count>
6

>  <Rotatable Bond Count>
20

>  <Topological Polar Surface Area>
212.34

>  <Molecular Formula>
C40H46N6O9

>  <InChI>
InChI=1S/C40H46N6O9/c47-33(13-3-6-24-55-29-16-14-26(15-17-29)20-23-43-36(49)27-9-7-10-28(25-27)37(50)45-54)42-22-5-2-1-4-21-41-31-12-8-11-30-35(31)40(53)46(39(30)52)32-18-19-34(48)44-38(32)51/h7-12,14-17,25,32,41,54H,1-6,13,18-24H2,(H,42,47)(H,43,49)(H,45,50)(H,44,48,51)

>  <InChI Key>
WYWJHXKHDRJYLX-UHFFFAOYSA-N

>  <DC50 (nM)>
147

>  <Assay (DC50/Dmax)>
Degradation of HDAC8 in HCT-116 cells after 10 h treatment

>  <Dmax (%)>
93

>  <Percent degradation (%)>
85

>  <Assay (Percent degradation)>
% HDAC8 degradation in HCT-116 cells at 5000 nM

$$$$
5402
  MOE2018           3D

107113  0  0  1  0  0  0  0  0999 V2000
   -2.6490   -4.6600    1.8400 O   0  0  0  0  0  0  0  0  0  0  0  0
   -3.0280   -5.7870    1.6500 C   0  0  0  0  0  0  0  0  0  0  0  0
   -3.9400   -6.1790    0.5020 C   0  0  0  0  0  0  0  0  0  0  0  0
   -3.4940   -7.5690   -0.0090 C   0  0  0  0  0  0  0  0  0  0  0  0
   -3.6560   -8.5590    1.1740 C   0  0  1  0  0  0  0  0  0  0  0  0
   -3.1440   -9.8700    0.7420 N   0  0  0  0  0  0  0  0  0  0  0  0
   -3.9270  -10.9970    0.6540 C   0  0  0  0  0  0  0  0  0  0  0  0
   -5.1370  -10.9620    0.8170 O   0  0  0  0  0  0  0  0  0  0  0  0
   -3.0730  -12.1140    0.3420 C   0  0  0  0  0  0  0  0  0  0  0  0
   -3.3940  -13.4610    0.1840 C   0  0  0  0  0  0  0  0  0  0  0  0
   -2.3700  -14.3620   -0.1020 C   0  0  0  0  0  0  0  0  0  0  0  0
   -1.0550  -13.9150   -0.2290 C   0  0  0  0  0  0  0  0  0  0  0  0
   -0.7380  -12.5570   -0.0740 C   0  0  0  0  0  0  0  0  0  0  0  0
    0.6120  -12.2200   -0.2420 N   0  0  0  0  0  0  0  0  0  0  0  0
    1.5650  -12.7420    0.7440 C   0  0  0  0  0  0  0  0  0  0  0  0
    2.8300  -13.0960   -0.0550 C   0  0  0  0  0  0  0  0  0  0  0  0
    3.3700  -11.7970   -0.7090 C   0  0  0  0  0  0  0  0  0  0  0  0
    4.5750  -12.0610   -1.5630 N   0  0  0  0  0  0  0  0  0  0  0  0
    5.5210  -13.0900   -1.0180 C   0  0  0  0  0  0  0  0  0  0  0  0
    6.6130  -13.3520   -2.0830 C   0  0  0  0  0  0  0  0  0  0  0  0
    7.3110  -12.0660   -2.3120 N   0  0  0  0  0  0  0  0  0  0  0  0
    8.6080  -11.8110   -2.0500 C   0  0  0  0  0  0  0  0  0  0  0  0
    9.0860  -10.6920   -2.2170 O   0  0  0  0  0  0  0  0  0  0  0  0
    9.5050  -12.9410   -1.5270 C   0  0  0  0  0  0  0  0  0  0  0  0
   10.9860  -12.5520   -1.3680 C   0  0  0  0  0  0  0  0  0  0  0  0
   11.8090  -13.7410   -0.8520 C   0  0  0  0  0  0  0  0  0  0  0  0
   13.2950  -13.3860   -0.7770 C   0  0  0  0  0  0  0  0  0  0  0  0
   13.9340  -14.5830   -0.2890 O   0  0  0  0  0  0  0  0  0  0  0  0
   15.2960  -14.7750   -0.2370 C   0  0  0  0  0  0  0  0  0  0  0  0
   16.2000  -13.7820   -0.6190 C   0  0  0  0  0  0  0  0  0  0  0  0
   17.5650  -14.0440   -0.5580 C   0  0  0  0  0  0  0  0  0  0  0  0
   18.0280  -15.2850   -0.1170 C   0  0  0  0  0  0  0  0  0  0  0  0
   19.5180  -15.5540   -0.0520 C   0  0  0  0  0  0  0  0  0  0  0  0
   20.0010  -14.9330    1.2640 C   0  0  0  0  0  0  0  0  0  0  0  0
   21.4470  -15.1870    1.3320 N   0  0  0  0  0  0  0  0  0  0  0  0
   22.3770  -14.3730    0.7370 C   0  0  0  0  0  0  0  0  0  0  0  0
   21.9610  -13.4030    0.1180 O   0  0  0  0  0  0  0  0  0  0  0  0
   23.8060  -14.6840    0.8690 C   0  0  0  0  0  0  0  0  0  0  0  0
   24.2570  -15.9840    1.1470 C   0  0  0  0  0  0  0  0  0  0  0  0
   25.6160  -16.2500    1.2750 C   0  0  0  0  0  0  0  0  0  0  0  0
   26.5460  -15.2290    1.1170 C   0  0  0  0  0  0  0  0  0  0  0  0
   26.1270  -13.9220    0.8190 C   0  0  0  0  0  0  0  0  0  0  0  0
   27.0880  -12.8290    0.6330 C   0  0  0  0  0  0  0  0  0  0  0  0
   26.8210  -11.6430    0.8300 O   0  0  0  0  0  0  0  0  0  0  0  0
   28.3570  -13.1100    0.2050 N   0  0  0  0  0  0  0  0  0  0  0  0
   29.2900  -12.0690    0.0330 O   0  5  0  0  0  0  0  0  0  0  0  0
   24.7550  -13.6670    0.7050 C   0  0  0  0  0  0  0  0  0  0  0  0
   17.1130  -16.2660    0.2700 C   0  0  0  0  0  0  0  0  0  0  0  0
   15.7460  -16.0120    0.2090 C   0  0  0  0  0  0  0  0  0  0  0  0
    6.4130  -11.0140   -2.8380 C   0  0  0  0  0  0  0  0  0  0  0  0
    5.3340  -10.7790   -1.7580 C   0  0  0  0  0  0  0  0  0  0  0  0
    2.2740  -11.2980   -1.6810 C   0  0  0  0  0  0  0  0  0  0  0  0
    1.0210  -10.9550   -0.8630 C   0  0  0  0  0  0  0  0  0  0  0  0
   -1.7740  -11.6430    0.2240 C   0  0  0  0  0  0  0  0  0  0  0  0
   -1.8240  -10.2200    0.4870 C   0  0  0  0  0  0  0  0  0  0  0  0
   -0.9490   -9.3630    0.5010 O   0  0  0  0  0  0  0  0  0  0  0  0
   -2.8760   -8.0550    2.4000 C   0  0  0  0  0  0  0  0  0  0  0  0
   -2.4980   -8.7610    3.3090 O   0  0  0  0  0  0  0  0  0  0  0  0
   -2.6170   -6.7260    2.5400 N   0  0  0  0  0  0  0  0  0  0  0  0
   -4.9720   -6.2260    0.8490 H   0  0  0  0  0  0  0  0  0  0  0  0
   -3.8600   -5.4460   -0.3010 H   0  0  0  0  0  0  0  0  0  0  0  0
   -2.4520   -7.5340   -0.3280 H   0  0  0  0  0  0  0  0  0  0  0  0
   -4.1200   -7.8790   -0.8450 H   0  0  0  0  0  0  0  0  0  0  0  0
   -4.7050   -8.6420    1.4570 H   0  0  0  0  0  0  0  0  0  0  0  0
   -4.4150  -13.7990    0.2810 H   0  0  0  0  0  0  0  0  0  0  0  0
   -2.5960  -15.4110   -0.2260 H   0  0  0  0  0  0  0  0  0  0  0  0
   -0.2700  -14.6240   -0.4500 H   0  0  0  0  0  0  0  0  0  0  0  0
    1.7890  -11.9850    1.4960 H   0  0  0  0  0  0  0  0  0  0  0  0
    1.1610  -13.6300    1.2310 H   0  0  0  0  0  0  0  0  0  0  0  0
    2.5860  -13.8250   -0.8280 H   0  0  0  0  0  0  0  0  0  0  0  0
    3.5830  -13.5140    0.6130 H   0  0  0  0  0  0  0  0  0  0  0  0
    3.6280  -11.0930    0.0820 H   0  0  0  0  0  0  0  0  0  0  0  0
    5.9800  -12.7210   -0.1010 H   0  0  0  0  0  0  0  0  0  0  0  0
    4.9810  -14.0130   -0.8080 H   0  0  0  0  0  0  0  0  0  0  0  0
    6.1570  -13.7000   -3.0090 H   0  0  0  0  0  0  0  0  0  0  0  0
    7.3170  -14.1010   -1.7210 H   0  0  0  0  0  0  0  0  0  0  0  0
    9.1280  -13.2530   -0.5530 H   0  0  0  0  0  0  0  0  0  0  0  0
    9.4440  -13.7760   -2.2250 H   0  0  0  0  0  0  0  0  0  0  0  0
   11.3790  -12.2380   -2.3350 H   0  0  0  0  0  0  0  0  0  0  0  0
   11.0650  -11.7280   -0.6590 H   0  0  0  0  0  0  0  0  0  0  0  0
   11.6780  -14.5860   -1.5280 H   0  0  0  0  0  0  0  0  0  0  0  0
   11.4570  -14.0140    0.1430 H   0  0  0  0  0  0  0  0  0  0  0  0
   13.4580  -12.5560   -0.0890 H   0  0  0  0  0  0  0  0  0  0  0  0
   13.6770  -13.1210   -1.7630 H   0  0  0  0  0  0  0  0  0  0  0  0
   15.8430  -12.8210   -0.9580 H   0  0  0  0  0  0  0  0  0  0  0  0
   18.2710  -13.2820   -0.8540 H   0  0  0  0  0  0  0  0  0  0  0  0
   20.0240  -15.0900   -0.8980 H   0  0  0  0  0  0  0  0  0  0  0  0
   19.7100  -16.6270   -0.0580 H   0  0  0  0  0  0  0  0  0  0  0  0
   19.4950  -15.3990    2.1100 H   0  0  0  0  0  0  0  0  0  0  0  0
   19.8050  -13.8610    1.2700 H   0  0  0  0  0  0  0  0  0  0  0  0
   21.7710  -15.9980    1.8400 H   0  0  0  0  0  0  0  0  0  0  0  0
   23.5420  -16.7850    1.2630 H   0  0  0  0  0  0  0  0  0  0  0  0
   25.9500  -17.2530    1.4980 H   0  0  0  0  0  0  0  0  0  0  0  0
   27.5990  -15.4420    1.2240 H   0  0  0  0  0  0  0  0  0  0  0  0
   28.6250  -14.0650    0.0120 H   0  0  0  0  0  0  0  0  0  0  0  0
   24.4210  -12.6640    0.4860 H   0  0  0  0  0  0  0  0  0  0  0  0
   17.4670  -17.2250    0.6180 H   0  0  0  0  0  0  0  0  0  0  0  0
   15.0390  -16.7720    0.5070 H   0  0  0  0  0  0  0  0  0  0  0  0
    6.9730  -10.0960   -3.0170 H   0  0  0  0  0  0  0  0  0  0  0  0
    5.9500  -11.3440   -3.7680 H   0  0  0  0  0  0  0  0  0  0  0  0
    4.6520   -9.9930   -2.0830 H   0  0  0  0  0  0  0  0  0  0  0  0
    5.8080  -10.4850   -0.8210 H   0  0  0  0  0  0  0  0  0  0  0  0
    2.6250  -10.4100   -2.2070 H   0  0  0  0  0  0  0  0  0  0  0  0
    2.0390  -12.0790   -2.4040 H   0  0  0  0  0  0  0  0  0  0  0  0
    0.2320  -10.5750   -1.5120 H   0  0  0  0  0  0  0  0  0  0  0  0
    1.2530  -10.2120   -0.1000 H   0  0  0  0  0  0  0  0  0  0  0  0
   -2.0920   -6.4230    3.3480 H   0  0  0  0  0  0  0  0  0  0  0  0
  1  2  2  0  0  0  0
  2  3  1  0  0  0  0
  2 59  1  0  0  0  0
  3  4  1  0  0  0  0
  3 60  1  0  0  0  0
  3 61  1  0  0  0  0
  4  5  1  0  0  0  0
  4 62  1  0  0  0  0
  4 63  1  0  0  0  0
  5  6  1  0  0  0  0
  5 57  1  0  0  0  0
  5 64  1  0  0  0  0
  6  7  1  0  0  0  0
  6 55  1  0  0  0  0
  7  8  2  0  0  0  0
  7  9  1  0  0  0  0
  9 10  1  0  0  0  0
  9 54  2  0  0  0  0
 10 11  2  0  0  0  0
 10 65  1  0  0  0  0
 11 12  1  0  0  0  0
 11 66  1  0  0  0  0
 12 13  2  0  0  0  0
 12 67  1  0  0  0  0
 13 14  1  0  0  0  0
 13 54  1  0  0  0  0
 14 15  1  0  0  0  0
 14 53  1  0  0  0  0
 15 16  1  0  0  0  0
 15 68  1  0  0  0  0
 15 69  1  0  0  0  0
 16 17  1  0  0  0  0
 16 70  1  0  0  0  0
 16 71  1  0  0  0  0
 17 18  1  0  0  0  0
 17 52  1  0  0  0  0
 17 72  1  0  0  0  0
 18 19  1  0  0  0  0
 18 51  1  0  0  0  0
 19 20  1  0  0  0  0
 19 73  1  0  0  0  0
 19 74  1  0  0  0  0
 20 21  1  0  0  0  0
 20 75  1  0  0  0  0
 20 76  1  0  0  0  0
 21 22  1  0  0  0  0
 21 50  1  0  0  0  0
 22 23  2  0  0  0  0
 22 24  1  0  0  0  0
 24 25  1  0  0  0  0
 24 77  1  0  0  0  0
 24 78  1  0  0  0  0
 25 26  1  0  0  0  0
 25 79  1  0  0  0  0
 25 80  1  0  0  0  0
 26 27  1  0  0  0  0
 26 81  1  0  0  0  0
 26 82  1  0  0  0  0
 27 28  1  0  0  0  0
 27 83  1  0  0  0  0
 27 84  1  0  0  0  0
 28 29  1  0  0  0  0
 29 30  1  0  0  0  0
 29 49  2  0  0  0  0
 30 31  2  0  0  0  0
 30 85  1  0  0  0  0
 31 32  1  0  0  0  0
 31 86  1  0  0  0  0
 32 33  1  0  0  0  0
 32 48  2  0  0  0  0
 33 34  1  0  0  0  0
 33 87  1  0  0  0  0
 33 88  1  0  0  0  0
 34 35  1  0  0  0  0
 34 89  1  0  0  0  0
 34 90  1  0  0  0  0
 35 36  1  0  0  0  0
 35 91  1  0  0  0  0
 36 37  2  0  0  0  0
 36 38  1  0  0  0  0
 38 39  1  0  0  0  0
 38 47  2  0  0  0  0
 39 40  2  0  0  0  0
 39 92  1  0  0  0  0
 40 41  1  0  0  0  0
 40 93  1  0  0  0  0
 41 42  2  0  0  0  0
 41 94  1  0  0  0  0
 42 43  1  0  0  0  0
 42 47  1  0  0  0  0
 43 44  2  0  0  0  0
 43 45  1  0  0  0  0
 45 46  1  0  0  0  0
 45 95  1  0  0  0  0
 47 96  1  0  0  0  0
 48 49  1  0  0  0  0
 48 97  1  0  0  0  0
 49 98  1  0  0  0  0
 50 51  1  0  0  0  0
 50 99  1  0  0  0  0
 50100  1  0  0  0  0
 51101  1  0  0  0  0
 51102  1  0  0  0  0
 52 53  1  0  0  0  0
 52103  1  0  0  0  0
 52104  1  0  0  0  0
 53105  1  0  0  0  0
 53106  1  0  0  0  0
 54 55  1  0  0  0  0
 55 56  2  0  0  0  0
 57 58  2  0  0  0  0
 57 59  1  0  0  0  0
 59107  1  0  0  0  0
M  CHG  1  46  -1
M  END
>  <Compound ID>
5402

>  <Uniprot>
Q9BY41

>  <Target>
HDAC8

>  <E3 ligase>
CRBN

>  <Article DOI>
10.1016/j.ejmech.2022

>  <Molecular Weight>
807.90503

>  <Exact Mass>
807.35919

>  <XLogP3>
2.45

>  <Heavy Atom Count>
59

>  <Ring Count>
7

>  <Hydrogen Bond Acceptor Count>
11

>  <Hydrogen Bond Donor Count>
4

>  <Rotatable Bond Count>
14

>  <Topological Polar Surface Area>
198

>  <Molecular Formula>
C43H49N7O9

>  <InChI>
InChI=1S/C43H49N7O9/c51-36-15-14-35(41(55)45-36)50-42(56)33-7-4-8-34(38(33)43(50)57)48-20-17-31(18-21-48)47-22-24-49(25-23-47)37(52)9-1-2-26-59-32-12-10-28(11-13-32)16-19-44-39(53)29-5-3-6-30(27-29)40(54)46-58/h3-8,10-13,27,31,35,58H,1-2,9,14-26H2,(H,44,53)(H,46,54)(H,45,51,55)

>  <InChI Key>
QSDRZGJBNUYGJE-UHFFFAOYSA-N

>  <DC50 (nM)>
876

>  <Assay (DC50/Dmax)>
Degradation of HDAC8 in HCT-116 cells after 10 h treatment

>  <Dmax (%)>
91

>  <Percent degradation (%)>
74.4

>  <Assay (Percent degradation)>
% HDAC8 degradation in HCT-116 cells at 5000 nM

$$$$
5406
  MOE2018           3D

100104  0  0  1  0  0  0  0  0999 V2000
   -0.6620   -0.9550   -0.9260 O   0  0  0  0  0  0  0  0  0  0  0  0
   -0.7800   -2.1270   -0.5880 C   0  0  0  0  0  0  0  0  0  0  0  0
   -2.1530   -2.7480   -0.3340 C   0  0  0  0  0  0  0  0  0  0  0  0
   -3.3210   -1.7680   -0.5480 C   0  0  0  0  0  0  0  0  0  0  0  0
   -4.6790   -2.4330   -0.2780 C   0  0  0  0  0  0  0  0  0  0  0  0
   -5.8140   -1.4310   -0.4990 C   0  0  0  0  0  0  0  0  0  0  0  0
   -7.0250   -2.1630   -0.2160 O   0  0  0  0  0  0  0  0  0  0  0  0
   -8.2870   -1.6160   -0.2880 C   0  0  0  0  0  0  0  0  0  0  0  0
   -9.3570   -2.4370    0.0540 C   0  0  0  0  0  0  0  0  0  0  0  0
  -10.6530   -1.9320    0.0060 C   0  0  0  0  0  0  0  0  0  0  0  0
  -10.8810   -0.6120   -0.3850 C   0  0  0  0  0  0  0  0  0  0  0  0
  -12.2860   -0.0480   -0.4200 C   0  0  0  0  0  0  0  0  0  0  0  0
  -12.4690    0.6890    0.9120 C   0  0  0  0  0  0  0  0  0  0  0  0
  -13.8070    1.2930    0.8690 N   0  0  0  0  0  0  0  0  0  0  0  0
  -14.0520    2.5210    0.3120 C   0  0  0  0  0  0  0  0  0  0  0  0
  -13.1000    3.1190   -0.1740 O   0  0  0  0  0  0  0  0  0  0  0  0
  -15.4120    3.0770    0.3190 C   0  0  0  0  0  0  0  0  0  0  0  0
  -16.5440    2.2830    0.5700 C   0  0  0  0  0  0  0  0  0  0  0  0
  -17.8140    2.8470    0.5720 C   0  0  0  0  0  0  0  0  0  0  0  0
  -17.9770    4.2030    0.3150 C   0  0  0  0  0  0  0  0  0  0  0  0
  -16.8700    5.0200    0.0460 C   0  0  0  0  0  0  0  0  0  0  0  0
  -17.0700    6.4470   -0.2390 C   0  0  0  0  0  0  0  0  0  0  0  0
  -18.1130    7.0530    0.0180 O   0  0  0  0  0  0  0  0  0  0  0  0
  -16.0710    7.1700   -0.8330 N   0  0  0  0  0  0  0  0  0  0  0  0
  -16.2580    8.5390   -1.1040 O   0  5  0  0  0  0  0  0  0  0  0  0
  -15.5930    4.4410    0.0620 C   0  0  0  0  0  0  0  0  0  0  0  0
   -9.8000    0.2020   -0.7290 C   0  0  0  0  0  0  0  0  0  0  0  0
   -8.5010   -0.2940   -0.6830 C   0  0  0  0  0  0  0  0  0  0  0  0
    0.2810   -2.9170   -0.4230 N   0  0  0  0  0  0  0  0  0  0  0  0
    1.6400   -2.4390   -0.6230 C   0  0  0  0  0  0  0  0  0  0  0  0
    2.6380   -3.5190   -0.1980 C   0  0  0  0  0  0  0  0  0  0  0  0
    4.0740   -3.0040   -0.3750 C   0  0  0  0  0  0  0  0  0  0  0  0
    5.1080   -4.0590    0.0400 C   0  0  0  0  0  0  0  0  0  0  0  0
    6.5270   -3.4930   -0.1270 C   0  0  0  0  0  0  0  0  0  0  0  0
    7.5990   -4.5080    0.2770 C   0  0  0  0  0  0  0  0  0  0  0  0
    8.8580   -3.7900    0.1000 N   0  0  0  0  0  0  0  0  0  0  0  0
   10.0930   -4.3910    0.3050 C   0  0  0  0  0  0  0  0  0  0  0  0
   10.2360   -5.5500    1.0960 C   0  0  0  0  0  0  0  0  0  0  0  0
   11.4960   -6.1140    1.2820 C   0  0  0  0  0  0  0  0  0  0  0  0
   12.6040   -5.5110    0.6770 C   0  0  0  0  0  0  0  0  0  0  0  0
   14.0040   -5.8480    0.6910 C   0  0  0  0  0  0  0  0  0  0  0  0
   14.5850   -6.7640    1.2530 O   0  0  0  0  0  0  0  0  0  0  0  0
   14.6810   -4.9130   -0.0710 N   0  0  0  0  0  0  0  0  0  0  0  0
   16.1140   -4.9960   -0.3910 C   0  0  2  0  0  0  0  0  0  0  0  0
   16.8160   -3.7520    0.2130 C   0  0  0  0  0  0  0  0  0  0  0  0
   18.2980   -3.8110   -0.2250 C   0  0  0  0  0  0  0  0  0  0  0  0
   18.3420   -3.7600   -1.7410 C   0  0  0  0  0  0  0  0  0  0  0  0
   19.1920   -3.1750   -2.3610 O   0  0  0  0  0  0  0  0  0  0  0  0
   17.4000   -4.4130   -2.4690 N   0  0  0  0  0  0  0  0  0  0  0  0
   16.3180   -5.0280   -1.9150 C   0  0  0  0  0  0  0  0  0  0  0  0
   15.5950   -5.6150   -2.6900 O   0  0  0  0  0  0  0  0  0  0  0  0
   13.7670   -3.9940   -0.5640 C   0  0  0  0  0  0  0  0  0  0  0  0
   14.0980   -3.0420   -1.2540 O   0  0  0  0  0  0  0  0  0  0  0  0
   12.4550   -4.3720   -0.0940 C   0  0  0  0  0  0  0  0  0  0  0  0
   11.2050   -3.7940   -0.2940 C   0  0  0  0  0  0  0  0  0  0  0  0
   -2.2810   -3.5910   -1.0130 H   0  0  0  0  0  0  0  0  0  0  0  0
   -2.1850   -3.1030    0.6960 H   0  0  0  0  0  0  0  0  0  0  0  0
   -3.2010   -0.9230    0.1290 H   0  0  0  0  0  0  0  0  0  0  0  0
   -3.3000   -1.4140   -1.5790 H   0  0  0  0  0  0  0  0  0  0  0  0
   -4.7070   -2.7870    0.7520 H   0  0  0  0  0  0  0  0  0  0  0  0
   -4.8070   -3.2770   -0.9560 H   0  0  0  0  0  0  0  0  0  0  0  0
   -5.8140   -1.0750   -1.5290 H   0  0  0  0  0  0  0  0  0  0  0  0
   -5.7130   -0.5830    0.1780 H   0  0  0  0  0  0  0  0  0  0  0  0
   -9.1830   -3.4600    0.3550 H   0  0  0  0  0  0  0  0  0  0  0  0
  -11.4860   -2.5650    0.2730 H   0  0  0  0  0  0  0  0  0  0  0  0
  -13.0160   -0.8520   -0.5130 H   0  0  0  0  0  0  0  0  0  0  0  0
  -12.3980    0.6430   -1.2550 H   0  0  0  0  0  0  0  0  0  0  0  0
  -11.7090    1.4630    1.0230 H   0  0  0  0  0  0  0  0  0  0  0  0
  -12.3980   -0.0120    1.7440 H   0  0  0  0  0  0  0  0  0  0  0  0
  -14.5810    0.7810    1.2680 H   0  0  0  0  0  0  0  0  0  0  0  0
  -16.4260    1.2270    0.7630 H   0  0  0  0  0  0  0  0  0  0  0  0
  -18.6770    2.2300    0.7740 H   0  0  0  0  0  0  0  0  0  0  0  0
  -18.9680    4.6320    0.3230 H   0  0  0  0  0  0  0  0  0  0  0  0
  -15.2000    6.7210   -1.0770 H   0  0  0  0  0  0  0  0  0  0  0  0
  -14.7300    5.0610   -0.1280 H   0  0  0  0  0  0  0  0  0  0  0  0
   -9.9730    1.2240   -1.0330 H   0  0  0  0  0  0  0  0  0  0  0  0
   -7.6660    0.3370   -0.9500 H   0  0  0  0  0  0  0  0  0  0  0  0
    0.1360   -3.8790   -0.1500 H   0  0  0  0  0  0  0  0  0  0  0  0
    1.7890   -2.2030   -1.6770 H   0  0  0  0  0  0  0  0  0  0  0  0
    1.8000   -1.5430   -0.0240 H   0  0  0  0  0  0  0  0  0  0  0  0
    2.4720   -3.7730    0.8490 H   0  0  0  0  0  0  0  0  0  0  0  0
    2.4940   -4.4070   -0.8140 H   0  0  0  0  0  0  0  0  0  0  0  0
    4.2310   -2.7480   -1.4230 H   0  0  0  0  0  0  0  0  0  0  0  0
    4.2090   -2.1150    0.2410 H   0  0  0  0  0  0  0  0  0  0  0  0
    4.9950   -4.9430   -0.5880 H   0  0  0  0  0  0  0  0  0  0  0  0
    4.9480   -4.3320    1.0830 H   0  0  0  0  0  0  0  0  0  0  0  0
    6.6280   -2.6060    0.4990 H   0  0  0  0  0  0  0  0  0  0  0  0
    6.6770   -3.2200   -1.1720 H   0  0  0  0  0  0  0  0  0  0  0  0
    7.5610   -5.3870   -0.3670 H   0  0  0  0  0  0  0  0  0  0  0  0
    7.4710   -4.8130    1.3160 H   0  0  0  0  0  0  0  0  0  0  0  0
    8.8300   -2.8210   -0.1820 H   0  0  0  0  0  0  0  0  0  0  0  0
    9.3690   -6.0000    1.5570 H   0  0  0  0  0  0  0  0  0  0  0  0
   11.6160   -7.0030    1.8840 H   0  0  0  0  0  0  0  0  0  0  0  0
   16.5380   -5.9090    0.0270 H   0  0  0  0  0  0  0  0  0  0  0  0
   16.3510   -2.8410   -0.1630 H   0  0  0  0  0  0  0  0  0  0  0  0
   16.7460   -3.7740    1.3010 H   0  0  0  0  0  0  0  0  0  0  0  0
   18.7510   -4.7380    0.1270 H   0  0  0  0  0  0  0  0  0  0  0  0
   18.8400   -2.9610    0.1890 H   0  0  0  0  0  0  0  0  0  0  0  0
   17.5070   -4.4440   -3.4730 H   0  0  0  0  0  0  0  0  0  0  0  0
   11.0970   -2.9050   -0.8980 H   0  0  0  0  0  0  0  0  0  0  0  0
  1  2  2  0  0  0  0
  2  3  1  0  0  0  0
  2 29  1  0  0  0  0
  3  4  1  0  0  0  0
  3 56  1  0  0  0  0
  3 57  1  0  0  0  0
  4  5  1  0  0  0  0
  4 58  1  0  0  0  0
  4 59  1  0  0  0  0
  5  6  1  0  0  0  0
  5 60  1  0  0  0  0
  5 61  1  0  0  0  0
  6  7  1  0  0  0  0
  6 62  1  0  0  0  0
  6 63  1  0  0  0  0
  7  8  1  0  0  0  0
  8  9  1  0  0  0  0
  8 28  2  0  0  0  0
  9 10  2  0  0  0  0
  9 64  1  0  0  0  0
 10 11  1  0  0  0  0
 10 65  1  0  0  0  0
 11 12  1  0  0  0  0
 11 27  2  0  0  0  0
 12 13  1  0  0  0  0
 12 66  1  0  0  0  0
 12 67  1  0  0  0  0
 13 14  1  0  0  0  0
 13 68  1  0  0  0  0
 13 69  1  0  0  0  0
 14 15  1  0  0  0  0
 14 70  1  0  0  0  0
 15 16  2  0  0  0  0
 15 17  1  0  0  0  0
 17 18  1  0  0  0  0
 17 26  2  0  0  0  0
 18 19  2  0  0  0  0
 18 71  1  0  0  0  0
 19 20  1  0  0  0  0
 19 72  1  0  0  0  0
 20 21  2  0  0  0  0
 20 73  1  0  0  0  0
 21 22  1  0  0  0  0
 21 26  1  0  0  0  0
 22 23  2  0  0  0  0
 22 24  1  0  0  0  0
 24 25  1  0  0  0  0
 24 74  1  0  0  0  0
 26 75  1  0  0  0  0
 27 28  1  0  0  0  0
 27 76  1  0  0  0  0
 28 77  1  0  0  0  0
 29 30  1  0  0  0  0
 29 78  1  0  0  0  0
 30 31  1  0  0  0  0
 30 79  1  0  0  0  0
 30 80  1  0  0  0  0
 31 32  1  0  0  0  0
 31 81  1  0  0  0  0
 31 82  1  0  0  0  0
 32 33  1  0  0  0  0
 32 83  1  0  0  0  0
 32 84  1  0  0  0  0
 33 34  1  0  0  0  0
 33 85  1  0  0  0  0
 33 86  1  0  0  0  0
 34 35  1  0  0  0  0
 34 87  1  0  0  0  0
 34 88  1  0  0  0  0
 35 36  1  0  0  0  0
 35 89  1  0  0  0  0
 35 90  1  0  0  0  0
 36 37  1  0  0  0  0
 36 91  1  0  0  0  0
 37 38  1  0  0  0  0
 37 55  2  0  0  0  0
 38 39  2  0  0  0  0
 38 92  1  0  0  0  0
 39 40  1  0  0  0  0
 39 93  1  0  0  0  0
 40 41  1  0  0  0  0
 40 54  2  0  0  0  0
 41 42  2  0  0  0  0
 41 43  1  0  0  0  0
 43 44  1  0  0  0  0
 43 52  1  0  0  0  0
 44 45  1  0  0  0  0
 44 50  1  0  0  0  0
 44 94  1  0  0  0  0
 45 46  1  0  0  0  0
 45 95  1  0  0  0  0
 45 96  1  0  0  0  0
 46 47  1  0  0  0  0
 46 97  1  0  0  0  0
 46 98  1  0  0  0  0
 47 48  2  0  0  0  0
 47 49  1  0  0  0  0
 49 50  1  0  0  0  0
 49 99  1  0  0  0  0
 50 51  2  0  0  0  0
 52 53  2  0  0  0  0
 52 54  1  0  0  0  0
 54 55  1  0  0  0  0
 55100  1  0  0  0  0
M  CHG  1  25  -1
M  END
>  <Compound ID>
5406

>  <Uniprot>
Q9BY41

>  <Target>
HDAC8

>  <E3 ligase>
CRBN

>  <Article DOI>
10.1016/j.ejmech.2022

>  <Molecular Weight>
754.841

>  <Exact Mass>
754.33264

>  <XLogP3>
3.1900001

>  <Heavy Atom Count>
55

>  <Ring Count>
5

>  <Hydrogen Bond Acceptor Count>
10

>  <Hydrogen Bond Donor Count>
6

>  <Rotatable Bond Count>
20

>  <Topological Polar Surface Area>
212.34

>  <Molecular Formula>
C40H46N6O9

>  <InChI>
InChI=1S/C40H46N6O9/c47-34(10-3-6-23-55-30-14-11-26(12-15-30)19-22-43-36(49)27-8-7-9-28(24-27)37(50)45-54)42-21-5-2-1-4-20-41-29-13-16-31-32(25-29)40(53)46(39(31)52)33-17-18-35(48)44-38(33)51/h7-9,11-16,24-25,33,41,54H,1-6,10,17-23H2,(H,42,47)(H,43,49)(H,45,50)(H,44,48,51)

>  <InChI Key>
HIMPUSAONKTVMA-UHFFFAOYSA-N

>  <DC50 (nM)>
441

>  <Assay (DC50/Dmax)>
Degradation of HDAC8 in HCT-116 cells after 10 h treatment

>  <Dmax (%)>
77

>  <Percent degradation (%)>
68.9

>  <Assay (Percent degradation)>
% HDAC8 degradation in HCT-116 cells at 5000 nM

$$$$
