624
  MOE2018           3D

201210  0  0  1  0  0  0  0  0999 V2000
   22.3450  -30.2250   -4.6480 C   0  0  0  0  0  0  0  0  0  0  0  0
   23.5110  -29.7040   -3.8420 C   0  0  0  0  0  0  0  0  0  0  0  0
   23.7610  -30.0080   -2.5280 C   0  0  0  0  0  0  0  0  0  0  0  0
   22.9990  -30.8460   -1.6090 C   0  0  0  0  0  0  0  0  0  0  0  0
   21.6140  -30.6990   -1.4760 C   0  0  0  0  0  0  0  0  0  0  0  0
   20.8920  -31.5020   -0.6000 C   0  0  0  0  0  0  0  0  0  0  0  0
   21.5380  -32.4720    0.1730 C   0  0  0  0  0  0  0  0  0  0  0  0
   20.7830  -33.3690    1.1450 C   0  0  2  0  0  0  0  0  0  0  0  0
   19.8710  -34.3020    0.3410 C   0  0  0  0  0  0  0  0  0  0  0  0
   19.9180  -32.5200    1.9320 N   0  0  0  0  0  0  0  0  0  0  0  0
   19.9570  -32.4250    3.2600 C   0  0  0  0  0  0  0  0  0  0  0  0
   20.6600  -33.1740    3.9350 O   0  0  0  0  0  0  0  0  0  0  0  0
   19.0110  -31.3770    3.9140 C   0  0  2  0  0  0  0  0  0  0  0  0
   18.9770  -31.3910    5.4460 C   0  0  0  0  0  0  0  0  0  0  0  0
   17.8320  -32.3440    5.7770 C   0  0  1  0  0  0  0  0  0  0  0  0
   17.2500  -31.9670    7.0080 O   0  0  0  0  0  0  0  0  0  0  0  0
   16.8600  -32.1820    4.6010 C   0  0  0  0  0  0  0  0  0  0  0  0
   17.6080  -31.5520    3.5170 N   0  0  0  0  0  0  0  0  0  0  0  0
   17.1150  -31.1230    2.3380 C   0  0  0  0  0  0  0  0  0  0  0  0
   17.8720  -30.5800    1.5290 O   0  0  0  0  0  0  0  0  0  0  0  0
   15.6250  -31.3830    1.9590 C   0  0  1  0  0  0  0  0  0  0  0  0
   14.9510  -30.1400    1.5610 N   0  0  0  0  0  0  0  0  0  0  0  0
   14.4210  -29.3060    2.4490 C   0  0  0  0  0  0  0  0  0  0  0  0
   14.4150  -29.5560    3.6480 O   0  0  0  0  0  0  0  0  0  0  0  0
   13.7610  -28.0370    1.9220 C   0  0  0  0  0  0  0  0  0  0  0  0
   12.3840  -28.3200    1.2950 C   0  0  0  0  0  0  0  0  0  0  0  0
   11.6400  -27.0210    0.9490 C   0  0  0  0  0  0  0  0  0  0  0  0
   10.2710  -27.3500    0.3320 C   0  0  0  0  0  0  0  0  0  0  0  0
    9.5300  -26.0140    0.1460 C   0  0  0  0  0  0  0  0  0  0  0  0
    8.2450  -26.3580   -0.4830 N   0  3  0  0  0  0  0  0  0  0  0  0
    7.6810  -25.1140   -1.0960 C   0  0  0  0  0  0  0  0  0  0  0  0
    6.3660  -25.4980   -1.8220 C   0  0  0  0  0  0  0  0  0  0  0  0
    5.4210  -26.0200   -0.7930 N   0  0  0  0  0  0  0  0  0  0  0  0
    4.1190  -26.3560   -1.4090 C   0  0  0  0  0  0  0  0  0  0  0  0
    3.2690  -25.0820   -1.3080 C   0  0  0  0  0  0  0  0  0  0  0  0
    1.8790  -25.3980   -1.9020 C   0  0  2  0  0  0  0  0  0  0  0  0
    1.0760  -24.1000   -2.1320 C   0  0  0  0  0  0  0  0  0  0  0  0
    1.8800  -23.2200   -3.5230 S   0  0  0  0  0  0  0  0  0  0  0  0
    1.1400  -21.6350   -3.6170 C   0  0  0  0  0  0  0  0  0  0  0  0
    1.7460  -20.6670   -4.4250 C   0  0  0  0  0  0  0  0  0  0  0  0
    1.2000  -19.3920   -4.5260 C   0  0  0  0  0  0  0  0  0  0  0  0
    0.0410  -19.0690   -3.8260 C   0  0  0  0  0  0  0  0  0  0  0  0
   -0.5730  -20.0290   -3.0260 C   0  0  0  0  0  0  0  0  0  0  0  0
   -0.0320  -21.3060   -2.9200 C   0  0  0  0  0  0  0  0  0  0  0  0
    1.1680  -26.2400   -0.8970 N   0  0  0  0  0  0  0  0  0  0  0  0
   -0.0700  -26.7630   -1.2720 C   0  0  0  0  0  0  0  0  0  0  0  0
   -1.2080  -26.0540   -0.8810 C   0  0  0  0  0  0  0  0  0  0  0  0
   -2.4670  -26.4970   -1.2570 C   0  0  0  0  0  0  0  0  0  0  0  0
   -2.6170  -27.6630   -2.0110 C   0  0  0  0  0  0  0  0  0  0  0  0
   -4.2590  -28.2320   -2.5180 S   0  0  0  0  0  0  0  0  0  0  0  0
   -5.1100  -27.1130   -2.6850 O   0  0  0  0  0  0  0  0  0  0  0  0
   -4.1370  -29.0890   -3.6350 O   0  0  0  0  0  0  0  0  0  0  0  0
   -4.8060  -29.1390   -1.2580 N   0  0  0  0  0  0  0  0  0  0  0  0
   -5.5210  -28.4080   -0.3950 C   0  0  0  0  0  0  0  0  0  0  0  0
   -4.8310  -27.8880    0.4670 O   0  0  0  0  0  0  0  0  0  0  0  0
   -6.9760  -28.2730   -0.5180 C   0  0  0  0  0  0  0  0  0  0  0  0
   -7.6960  -28.9310   -1.5330 C   0  0  0  0  0  0  0  0  0  0  0  0
   -9.0740  -28.8060   -1.6290 C   0  0  0  0  0  0  0  0  0  0  0  0
   -9.7680  -28.0140   -0.7050 C   0  0  0  0  0  0  0  0  0  0  0  0
  -11.1610  -27.8620   -0.7680 N   0  0  0  0  0  0  0  0  0  0  0  0
  -11.8440  -28.0900   -2.0640 C   0  0  0  0  0  0  0  0  0  0  0  0
  -13.2030  -27.3450   -1.9920 C   0  0  0  0  0  0  0  0  0  0  0  0
  -13.9990  -27.9090   -0.8540 N   0  3  0  0  0  0  0  0  0  0  0  0
  -15.2940  -27.2290   -0.8150 C   0  0  0  0  0  0  0  0  0  0  0  0
  -16.1560  -28.1540    0.0210 C   0  0  0  0  0  0  0  0  0  0  0  0
  -16.4740  -27.8700    1.3100 C   0  0  0  0  0  0  0  0  0  0  0  0
  -16.0500  -26.6400    1.9730 C   0  0  0  0  0  0  0  0  0  0  0  0
  -16.5120  -25.3940    1.5270 C   0  0  0  0  0  0  0  0  0  0  0  0
  -16.0840  -24.2190    2.1330 C   0  0  0  0  0  0  0  0  0  0  0  0
  -15.1930  -24.2750    3.2050 C   0  0  0  0  0  0  0  0  0  0  0  0
  -14.6440  -22.8110    3.9530 Cl  0  0  0  0  0  0  0  0  0  0  0  0
  -14.7460  -25.5100    3.6780 C   0  0  0  0  0  0  0  0  0  0  0  0
  -15.1760  -26.6820    3.0680 C   0  0  0  0  0  0  0  0  0  0  0  0
  -17.3550  -28.7730    2.1690 C   0  0  0  0  0  0  0  0  0  0  0  0
  -17.4780  -30.1760    1.5380 C   0  0  0  0  0  0  0  0  0  0  0  0
  -17.8120  -30.0530    0.0380 C   0  0  0  0  0  0  0  0  0  0  0  0
  -18.0350  -31.4770   -0.5030 C   0  0  0  0  0  0  0  0  0  0  0  0
  -19.1080  -29.2640   -0.2450 C   0  0  0  0  0  0  0  0  0  0  0  0
  -16.6080  -29.4250   -0.7000 C   0  0  0  0  0  0  0  0  0  0  0  0
  -13.2740  -27.5970    0.4240 C   0  0  0  0  0  0  0  0  0  0  0  0
  -11.9110  -28.3360    0.4230 C   0  0  0  0  0  0  0  0  0  0  0  0
   -9.0670  -27.3470    0.3050 C   0  0  0  0  0  0  0  0  0  0  0  0
   -7.6880  -27.4780    0.3950 C   0  0  0  0  0  0  0  0  0  0  0  0
   -1.4710  -28.3790   -2.3720 C   0  0  0  0  0  0  0  0  0  0  0  0
   -0.1900  -27.9660   -1.9870 C   0  0  0  0  0  0  0  0  0  0  0  0
    1.2240  -29.0400   -2.3450 S   0  0  0  0  0  0  0  0  0  0  0  0
    2.2920  -28.2790   -2.9060 O   0  0  0  0  0  0  0  0  0  0  0  0
    0.7580  -30.1090   -3.1650 O   0  0  0  0  0  0  0  0  0  0  0  0
    1.7020  -29.7160   -0.6340 C   0  0  0  0  0  0  0  0  0  0  0  0
    2.6240  -30.7100   -0.6680 F   0  0  0  0  0  0  0  0  0  0  0  0
    2.2310  -28.8120    0.2230 F   0  0  0  0  0  0  0  0  0  0  0  0
    0.6540  -30.2450    0.0500 F   0  0  0  0  0  0  0  0  0  0  0  0
    5.9720  -27.2260   -0.1250 C   0  0  0  0  0  0  0  0  0  0  0  0
    7.2850  -26.8050    0.5780 C   0  0  0  0  0  0  0  0  0  0  0  0
   15.4240  -32.4950    0.8790 C   0  0  0  0  0  0  0  0  0  0  0  0
   16.0780  -33.8170    1.3290 C   0  0  0  0  0  0  0  0  0  0  0  0
   16.0010  -32.1310   -0.5060 C   0  0  0  0  0  0  0  0  0  0  0  0
   13.9210  -32.7920    0.6910 C   0  0  0  0  0  0  0  0  0  0  0  0
   22.9200  -32.6170    0.0480 C   0  0  0  0  0  0  0  0  0  0  0  0
   23.6400  -31.8150   -0.8300 C   0  0  0  0  0  0  0  0  0  0  0  0
   25.2000  -29.2240   -2.0210 S   0  0  0  0  0  0  0  0  0  0  0  0
   25.3450  -28.5370   -3.5890 C   0  0  0  0  0  0  0  0  0  0  0  0
   24.4070  -28.8680   -4.4280 N   0  0  0  0  0  0  0  0  0  0  0  0
   21.7340  -30.8770   -4.0230 H   0  0  0  0  0  0  0  0  0  0  0  0
   22.7180  -30.7870   -5.5040 H   0  0  0  0  0  0  0  0  0  0  0  0
   21.7420  -29.3870   -4.9980 H   0  0  0  0  0  0  0  0  0  0  0  0
   21.0990  -29.9520   -2.0620 H   0  0  0  0  0  0  0  0  0  0  0  0
   19.8230  -31.3750   -0.5160 H   0  0  0  0  0  0  0  0  0  0  0  0
   21.4800  -33.9360    1.7620 H   0  0  0  0  0  0  0  0  0  0  0  0
   19.1870  -33.7080   -0.2650 H   0  0  0  0  0  0  0  0  0  0  0  0
   19.2990  -34.9290    1.0250 H   0  0  0  0  0  0  0  0  0  0  0  0
   20.4780  -34.9320   -0.3090 H   0  0  0  0  0  0  0  0  0  0  0  0
   19.2360  -31.9600    1.4410 H   0  0  0  0  0  0  0  0  0  0  0  0
   19.4420  -30.4430    3.5540 H   0  0  0  0  0  0  0  0  0  0  0  0
   18.7780  -30.3940    5.8390 H   0  0  0  0  0  0  0  0  0  0  0  0
   19.9190  -31.7600    5.8520 H   0  0  0  0  0  0  0  0  0  0  0  0
   18.1400  -33.3830    5.8940 H   0  0  0  0  0  0  0  0  0  0  0  0
   16.9700  -31.0520    6.9290 H   0  0  0  0  0  0  0  0  0  0  0  0
   16.0200  -31.5510    4.8930 H   0  0  0  0  0  0  0  0  0  0  0  0
   16.4890  -33.1570    4.2840 H   0  0  0  0  0  0  0  0  0  0  0  0
   15.1600  -31.7640    2.8680 H   0  0  0  0  0  0  0  0  0  0  0  0
   14.8880  -29.9120    0.5790 H   0  0  0  0  0  0  0  0  0  0  0  0
   13.6340  -27.3370    2.7480 H   0  0  0  0  0  0  0  0  0  0  0  0
   14.4070  -27.5920    1.1650 H   0  0  0  0  0  0  0  0  0  0  0  0
   12.5240  -28.9010    0.3830 H   0  0  0  0  0  0  0  0  0  0  0  0
   11.7850  -28.8930    2.0030 H   0  0  0  0  0  0  0  0  0  0  0  0
   12.2300  -26.4460    0.2350 H   0  0  0  0  0  0  0  0  0  0  0  0
   11.4960  -26.4350    1.8560 H   0  0  0  0  0  0  0  0  0  0  0  0
    9.7060  -28.0020    0.9990 H   0  0  0  0  0  0  0  0  0  0  0  0
   10.4030  -27.8420   -0.6310 H   0  0  0  0  0  0  0  0  0  0  0  0
   10.1030  -25.3480   -0.4990 H   0  0  0  0  0  0  0  0  0  0  0  0
    9.3650  -25.5330    1.1100 H   0  0  0  0  0  0  0  0  0  0  0  0
    8.3810  -27.0850   -1.1710 H   0  0  0  0  0  0  0  0  0  0  0  0
    7.4740  -24.3780   -0.3190 H   0  0  0  0  0  0  0  0  0  0  0  0
    8.3910  -24.6980   -1.8110 H   0  0  0  0  0  0  0  0  0  0  0  0
    6.5640  -26.2670   -2.5690 H   0  0  0  0  0  0  0  0  0  0  0  0
    5.9390  -24.6210   -2.3080 H   0  0  0  0  0  0  0  0  0  0  0  0
    4.2550  -26.6400   -2.4520 H   0  0  0  0  0  0  0  0  0  0  0  0
    3.6430  -27.1740   -0.8680 H   0  0  0  0  0  0  0  0  0  0  0  0
    3.7390  -24.2760   -1.8710 H   0  0  0  0  0  0  0  0  0  0  0  0
    3.1680  -24.7850   -0.2640 H   0  0  0  0  0  0  0  0  0  0  0  0
    1.9810  -25.9050   -2.8610 H   0  0  0  0  0  0  0  0  0  0  0  0
    1.0970  -23.4820   -1.2350 H   0  0  0  0  0  0  0  0  0  0  0  0
    0.0430  -24.3380   -2.3850 H   0  0  0  0  0  0  0  0  0  0  0  0
    2.6430  -20.9110   -4.9740 H   0  0  0  0  0  0  0  0  0  0  0  0
    1.6770  -18.6500   -5.1500 H   0  0  0  0  0  0  0  0  0  0  0  0
   -0.3800  -18.0780   -3.9030 H   0  0  0  0  0  0  0  0  0  0  0  0
   -1.4740  -19.7810   -2.4850 H   0  0  0  0  0  0  0  0  0  0  0  0
   -0.5150  -22.0460   -2.3000 H   0  0  0  0  0  0  0  0  0  0  0  0
    1.5650  -26.4230    0.0140 H   0  0  0  0  0  0  0  0  0  0  0  0
   -1.1070  -25.1590   -0.2850 H   0  0  0  0  0  0  0  0  0  0  0  0
   -3.3410  -25.9340   -0.9640 H   0  0  0  0  0  0  0  0  0  0  0  0
   -4.6240  -30.1270   -1.1500 H   0  0  0  0  0  0  0  0  0  0  0  0
   -7.1670  -29.5430   -2.2480 H   0  0  0  0  0  0  0  0  0  0  0  0
   -9.6110  -29.3180   -2.4140 H   0  0  0  0  0  0  0  0  0  0  0  0
  -11.2410  -27.6930   -2.8810 H   0  0  0  0  0  0  0  0  0  0  0  0
  -12.0080  -29.1560   -2.2190 H   0  0  0  0  0  0  0  0  0  0  0  0
  -13.7480  -27.4840   -2.9260 H   0  0  0  0  0  0  0  0  0  0  0  0
  -13.0300  -26.2810   -1.8270 H   0  0  0  0  0  0  0  0  0  0  0  0
  -14.1210  -28.9050   -0.9660 H   0  0  0  0  0  0  0  0  0  0  0  0
  -15.2050  -26.2490   -0.3460 H   0  0  0  0  0  0  0  0  0  0  0  0
  -15.7040  -27.1150   -1.8180 H   0  0  0  0  0  0  0  0  0  0  0  0
  -17.2090  -25.3470    0.7030 H   0  0  0  0  0  0  0  0  0  0  0  0
  -16.4400  -23.2640    1.7750 H   0  0  0  0  0  0  0  0  0  0  0  0
  -14.0670  -25.5540    4.5170 H   0  0  0  0  0  0  0  0  0  0  0  0
  -14.8330  -27.6360    3.4420 H   0  0  0  0  0  0  0  0  0  0  0  0
  -16.9130  -28.8650    3.1610 H   0  0  0  0  0  0  0  0  0  0  0  0
  -18.3470  -28.3300    2.2520 H   0  0  0  0  0  0  0  0  0  0  0  0
  -18.2720  -30.7290    2.0400 H   0  0  0  0  0  0  0  0  0  0  0  0
  -16.5340  -30.7080    1.6550 H   0  0  0  0  0  0  0  0  0  0  0  0
  -18.8820  -31.9320    0.0100 H   0  0  0  0  0  0  0  0  0  0  0  0
  -17.1410  -32.0760   -0.3290 H   0  0  0  0  0  0  0  0  0  0  0  0
  -18.2390  -31.4310   -1.5730 H   0  0  0  0  0  0  0  0  0  0  0  0
  -19.9390  -29.7280    0.2870 H   0  0  0  0  0  0  0  0  0  0  0  0
  -19.3120  -29.2720   -1.3160 H   0  0  0  0  0  0  0  0  0  0  0  0
  -18.9880  -28.2350    0.0940 H   0  0  0  0  0  0  0  0  0  0  0  0
  -16.9000  -29.1770   -1.7200 H   0  0  0  0  0  0  0  0  0  0  0  0
  -15.7850  -30.1400   -0.7210 H   0  0  0  0  0  0  0  0  0  0  0  0
  -13.1070  -26.5220    0.4970 H   0  0  0  0  0  0  0  0  0  0  0  0
  -13.8700  -27.9310    1.2730 H   0  0  0  0  0  0  0  0  0  0  0  0
  -12.0690  -29.4130    0.3620 H   0  0  0  0  0  0  0  0  0  0  0  0
  -11.3570  -28.1010    1.3320 H   0  0  0  0  0  0  0  0  0  0  0  0
   -9.5980  -26.7300    1.0150 H   0  0  0  0  0  0  0  0  0  0  0  0
   -7.1550  -26.9610    1.1790 H   0  0  0  0  0  0  0  0  0  0  0  0
   -1.5770  -29.2760   -2.9640 H   0  0  0  0  0  0  0  0  0  0  0  0
    5.2600  -27.6030    0.6090 H   0  0  0  0  0  0  0  0  0  0  0  0
    6.1770  -28.0010   -0.8640 H   0  0  0  0  0  0  0  0  0  0  0  0
    7.7020  -27.6510    1.1240 H   0  0  0  0  0  0  0  0  0  0  0  0
    7.0900  -25.9870    1.2710 H   0  0  0  0  0  0  0  0  0  0  0  0
   15.9260  -34.5770    0.5620 H   0  0  0  0  0  0  0  0  0  0  0  0
   15.6240  -34.1470    2.2630 H   0  0  0  0  0  0  0  0  0  0  0  0
   17.1460  -33.6610    1.4790 H   0  0  0  0  0  0  0  0  0  0  0  0
   15.8230  -32.9520   -1.2010 H   0  0  0  0  0  0  0  0  0  0  0  0
   17.0730  -31.9560   -0.4180 H   0  0  0  0  0  0  0  0  0  0  0  0
   15.5140  -31.2290   -0.8770 H   0  0  0  0  0  0  0  0  0  0  0  0
   13.7960  -33.5680   -0.0640 H   0  0  0  0  0  0  0  0  0  0  0  0
   13.4090  -31.8850    0.3680 H   0  0  0  0  0  0  0  0  0  0  0  0
   13.4970  -33.1320    1.6360 H   0  0  0  0  0  0  0  0  0  0  0  0
   23.4350  -33.3600    0.6390 H   0  0  0  0  0  0  0  0  0  0  0  0
   24.7090  -31.9420   -0.9120 H   0  0  0  0  0  0  0  0  0  0  0  0
   26.1570  -27.8780   -3.8590 H   0  0  0  0  0  0  0  0  0  0  0  0
  1  2  1  0  0  0  0
  1104  1  0  0  0  0
  1105  1  0  0  0  0
  1106  1  0  0  0  0
  2  3  2  0  0  0  0
  2103  1  0  0  0  0
  3  4  1  0  0  0  0
  3101  1  0  0  0  0
  4  5  1  0  0  0  0
  4100  2  0  0  0  0
  5  6  2  0  0  0  0
  5107  1  0  0  0  0
  6  7  1  0  0  0  0
  6108  1  0  0  0  0
  7  8  1  0  0  0  0
  7 99  2  0  0  0  0
  8  9  1  0  0  0  0
  8 10  1  0  0  0  0
  8109  1  0  0  0  0
  9110  1  0  0  0  0
  9111  1  0  0  0  0
  9112  1  0  0  0  0
 10 11  1  0  0  0  0
 10113  1  0  0  0  0
 11 12  2  0  0  0  0
 11 13  1  0  0  0  0
 13 14  1  0  0  0  0
 13 18  1  0  0  0  0
 13114  1  0  0  0  0
 14 15  1  0  0  0  0
 14115  1  0  0  0  0
 14116  1  0  0  0  0
 15 16  1  0  0  0  0
 15 17  1  0  0  0  0
 15117  1  0  0  0  0
 16118  1  0  0  0  0
 17 18  1  0  0  0  0
 17119  1  0  0  0  0
 17120  1  0  0  0  0
 18 19  1  0  0  0  0
 19 20  2  0  0  0  0
 19 21  1  0  0  0  0
 21 22  1  0  0  0  0
 21 95  1  0  0  0  0
 21121  1  0  0  0  0
 22 23  1  0  0  0  0
 22122  1  0  0  0  0
 23 24  2  0  0  0  0
 23 25  1  0  0  0  0
 25 26  1  0  0  0  0
 25123  1  0  0  0  0
 25124  1  0  0  0  0
 26 27  1  0  0  0  0
 26125  1  0  0  0  0
 26126  1  0  0  0  0
 27 28  1  0  0  0  0
 27127  1  0  0  0  0
 27128  1  0  0  0  0
 28 29  1  0  0  0  0
 28129  1  0  0  0  0
 28130  1  0  0  0  0
 29 30  1  0  0  0  0
 29131  1  0  0  0  0
 29132  1  0  0  0  0
 30 31  1  0  0  0  0
 30 94  1  0  0  0  0
 30133  1  0  0  0  0
 31 32  1  0  0  0  0
 31134  1  0  0  0  0
 31135  1  0  0  0  0
 32 33  1  0  0  0  0
 32136  1  0  0  0  0
 32137  1  0  0  0  0
 33 34  1  0  0  0  0
 33 93  1  0  0  0  0
 34 35  1  0  0  0  0
 34138  1  0  0  0  0
 34139  1  0  0  0  0
 35 36  1  0  0  0  0
 35140  1  0  0  0  0
 35141  1  0  0  0  0
 36 37  1  0  0  0  0
 36 45  1  0  0  0  0
 36142  1  0  0  0  0
 37 38  1  0  0  0  0
 37143  1  0  0  0  0
 37144  1  0  0  0  0
 38 39  1  0  0  0  0
 39 40  1  0  0  0  0
 39 44  2  0  0  0  0
 40 41  2  0  0  0  0
 40145  1  0  0  0  0
 41 42  1  0  0  0  0
 41146  1  0  0  0  0
 42 43  2  0  0  0  0
 42147  1  0  0  0  0
 43 44  1  0  0  0  0
 43148  1  0  0  0  0
 44149  1  0  0  0  0
 45 46  1  0  0  0  0
 45150  1  0  0  0  0
 46 47  1  0  0  0  0
 46 85  2  0  0  0  0
 47 48  2  0  0  0  0
 47151  1  0  0  0  0
 48 49  1  0  0  0  0
 48152  1  0  0  0  0
 49 50  1  0  0  0  0
 49 84  2  0  0  0  0
 50 51  2  0  0  0  0
 50 52  2  0  0  0  0
 50 53  1  0  0  0  0
 53 54  1  0  0  0  0
 53153  1  0  0  0  0
 54 55  2  0  0  0  0
 54 56  1  0  0  0  0
 56 57  1  0  0  0  0
 56 83  2  0  0  0  0
 57 58  2  0  0  0  0
 57154  1  0  0  0  0
 58 59  1  0  0  0  0
 58155  1  0  0  0  0
 59 60  1  0  0  0  0
 59 82  2  0  0  0  0
 60 61  1  0  0  0  0
 60 81  1  0  0  0  0
 61 62  1  0  0  0  0
 61156  1  0  0  0  0
 61157  1  0  0  0  0
 62 63  1  0  0  0  0
 62158  1  0  0  0  0
 62159  1  0  0  0  0
 63 64  1  0  0  0  0
 63 80  1  0  0  0  0
 63160  1  0  0  0  0
 64 65  1  0  0  0  0
 64161  1  0  0  0  0
 64162  1  0  0  0  0
 65 66  2  0  0  0  0
 65 79  1  0  0  0  0
 66 67  1  0  0  0  0
 66 74  1  0  0  0  0
 67 68  1  0  0  0  0
 67 73  2  0  0  0  0
 68 69  2  0  0  0  0
 68163  1  0  0  0  0
 69 70  1  0  0  0  0
 69164  1  0  0  0  0
 70 71  1  0  0  0  0
 70 72  2  0  0  0  0
 72 73  1  0  0  0  0
 72165  1  0  0  0  0
 73166  1  0  0  0  0
 74 75  1  0  0  0  0
 74167  1  0  0  0  0
 74168  1  0  0  0  0
 75 76  1  0  0  0  0
 75169  1  0  0  0  0
 75170  1  0  0  0  0
 76 77  1  0  0  0  0
 76 78  1  0  0  0  0
 76 79  1  0  0  0  0
 77171  1  0  0  0  0
 77172  1  0  0  0  0
 77173  1  0  0  0  0
 78174  1  0  0  0  0
 78175  1  0  0  0  0
 78176  1  0  0  0  0
 79177  1  0  0  0  0
 79178  1  0  0  0  0
 80 81  1  0  0  0  0
 80179  1  0  0  0  0
 80180  1  0  0  0  0
 81181  1  0  0  0  0
 81182  1  0  0  0  0
 82 83  1  0  0  0  0
 82183  1  0  0  0  0
 83184  1  0  0  0  0
 84 85  1  0  0  0  0
 84185  1  0  0  0  0
 85 86  1  0  0  0  0
 86 87  2  0  0  0  0
 86 88  2  0  0  0  0
 86 89  1  0  0  0  0
 89 90  1  0  0  0  0
 89 91  1  0  0  0  0
 89 92  1  0  0  0  0
 93 94  1  0  0  0  0
 93186  1  0  0  0  0
 93187  1  0  0  0  0
 94188  1  0  0  0  0
 94189  1  0  0  0  0
 95 96  1  0  0  0  0
 95 97  1  0  0  0  0
 95 98  1  0  0  0  0
 96190  1  0  0  0  0
 96191  1  0  0  0  0
 96192  1  0  0  0  0
 97193  1  0  0  0  0
 97194  1  0  0  0  0
 97195  1  0  0  0  0
 98196  1  0  0  0  0
 98197  1  0  0  0  0
 98198  1  0  0  0  0
 99100  1  0  0  0  0
 99199  1  0  0  0  0
100200  1  0  0  0  0
101102  1  0  0  0  0
102103  2  0  0  0  0
102201  1  0  0  0  0
M  CHG  1  30   1
M  CHG  1  63   1
M  END
>  <Compound ID>
624

>  <Uniprot>
Q07817

>  <Target>
BCL-xL

>  <E3 ligase>
VHL

>  <IC50 (nM, Cellular activities)>
82/76/203

>  <Assay (Cellular activities, IC50)>
Inhibit viability of MOLT-4/RS4;11/H146 cells

>  <Article DOI>
10.1016/j.ejmech.2020.112186

>  <Molecular Weight>
1514.38

>  <Exact Mass>
1512.5885

>  <XLogP3>
13.25

>  <Heavy Atom Count>
103

>  <Ring Count>
10

>  <Hydrogen Bond Acceptor Count>
17

>  <Hydrogen Bond Donor Count>
5

>  <Rotatable Bond Count>
28

>  <Topological Polar Surface Area>
234

>  <Molecular Formula>
C76H96ClF3N10O9S4

>  <InChI>
InChI=1S/C76H96ClF3N10O9S4/c1-51(53-17-19-55(20-18-53)69-52(2)81-50-101-69)82-72(94)66-44-61(91)48-90(66)73(95)70(74(3,4)5)84-68(92)16-12-9-13-34-86-36-38-87(39-37-86)35-32-59(49-100-62-14-10-8-11-15-62)83-65-30-29-63(45-67(65)102(96,97)76(78,79)80)103(98,99)85-71(93)56-23-27-60(28-24-56)89-42-40-88(41-43-89)47-57-46-75(6,7)33-31-64(57)54-21-25-58(77)26-22-54/h8,10-11,14-15,17-30,45,50-51,59,61,66,70,83,91H,9,12-13,16,31-44,46-49H2,1-7H3,(H,82,94)(H,84,92)(H,85,93)/t51-,59+,61+,66-,70+/m0/s1

>  <InChI Key>
FQLHSKINBMZPFV-WTFVIAODSA-N

>  <DC50 (nM)>
93

>  <Assay (DC50/Dmax)>
Degradation of BCL-xL in MOLT-4 cells after 16 h treatment

$$$$
635
  MOE2018           3D

195203  0  0  1  0  0  0  0  0999 V2000
   21.4500   29.1620    5.8150 C   0  0  0  0  0  0  0  0  0  0  0  0
   21.7540   27.7760    5.2970 C   0  0  0  0  0  0  0  0  0  0  0  0
   21.7690   27.4140    3.9730 C   0  0  0  0  0  0  0  0  0  0  0  0
   21.4920   28.2210    2.7910 C   0  0  0  0  0  0  0  0  0  0  0  0
   20.3520   29.0290    2.7180 C   0  0  0  0  0  0  0  0  0  0  0  0
   20.0990   29.8060    1.5930 C   0  0  0  0  0  0  0  0  0  0  0  0
   20.9780   29.7900    0.5060 C   0  0  0  0  0  0  0  0  0  0  0  0
   20.7470   30.6370   -0.7390 C   0  0  2  0  0  0  0  0  0  0  0  0
   20.9130   32.1130   -0.3600 C   0  0  0  0  0  0  0  0  0  0  0  0
   19.3670   30.4700   -1.1410 N   0  0  0  0  0  0  0  0  0  0  0  0
   18.9820   29.9780   -2.3180 C   0  0  0  0  0  0  0  0  0  0  0  0
   19.8070   29.7030   -3.1850 O   0  0  0  0  0  0  0  0  0  0  0  0
   17.4510   29.8380   -2.5880 C   0  0  2  0  0  0  0  0  0  0  0  0
   17.1060   29.6230   -4.0740 C   0  0  0  0  0  0  0  0  0  0  0  0
   15.7940   30.3670   -4.2880 C   0  0  1  0  0  0  0  0  0  0  0  0
   14.6990   29.5450   -3.9390 O   0  0  0  0  0  0  0  0  0  0  0  0
   15.9190   31.5300   -3.3070 C   0  0  0  0  0  0  0  0  0  0  0  0
   16.6120   30.9740   -2.1450 N   0  0  0  0  0  0  0  0  0  0  0  0
   16.3430   31.2290   -0.8460 C   0  0  0  0  0  0  0  0  0  0  0  0
   16.8220   30.5010    0.0230 O   0  0  0  0  0  0  0  0  0  0  0  0
   15.4930   32.4670   -0.4250 C   0  0  1  0  0  0  0  0  0  0  0  0
   14.4590   32.0920    0.5540 N   0  0  0  0  0  0  0  0  0  0  0  0
   13.1380   32.1630    0.4410 C   0  0  0  0  0  0  0  0  0  0  0  0
   12.4580   31.8100    1.3910 O   0  0  0  0  0  0  0  0  0  0  0  0
   12.5020   32.6790   -0.8570 C   0  0  0  0  0  0  0  0  0  0  0  0
   10.9680   32.5660   -0.9420 C   0  0  0  0  0  0  0  0  0  0  0  0
   10.4940   31.1070   -1.0360 C   0  0  0  0  0  0  0  0  0  0  0  0
    8.9870   31.0550   -1.3130 C   0  0  0  0  0  0  0  0  0  0  0  0
    8.4860   29.6030   -1.2900 C   0  0  0  0  0  0  0  0  0  0  0  0
    7.0180   29.6590   -1.7390 C   0  0  0  0  0  0  0  0  0  0  0  0
    6.4550   28.3060   -1.5400 N   0  3  2  0  0  0  0  0  0  0  0  0
    6.9240   27.4190   -2.6420 C   0  0  0  0  0  0  0  0  0  0  0  0
    4.9890   28.4470   -1.6410 C   0  0  0  0  0  0  0  0  0  0  0  0
    4.3720   27.2590   -0.8860 C   0  0  0  0  0  0  0  0  0  0  0  0
    2.8470   27.3070   -1.1040 C   0  0  2  0  0  0  0  0  0  0  0  0
    2.1240   28.4690   -0.3940 C   0  0  0  0  0  0  0  0  0  0  0  0
    2.2320   29.9070   -1.5210 S   0  0  0  0  0  0  0  0  0  0  0  0
    1.3960   31.2350   -0.7440 C   0  0  0  0  0  0  0  0  0  0  0  0
    1.2810   32.4420   -1.4430 C   0  0  0  0  0  0  0  0  0  0  0  0
    0.6330   33.5290   -0.8690 C   0  0  0  0  0  0  0  0  0  0  0  0
    0.0910   33.4250    0.4090 C   0  0  0  0  0  0  0  0  0  0  0  0
    0.1980   32.2280    1.1110 C   0  0  0  0  0  0  0  0  0  0  0  0
    0.8450   31.1360    0.5430 C   0  0  0  0  0  0  0  0  0  0  0  0
    2.3460   26.0760   -0.4980 N   0  0  0  0  0  0  0  0  0  0  0  0
    1.3470   25.3040   -1.1210 C   0  0  0  0  0  0  0  0  0  0  0  0
    0.4360   25.9010   -2.0020 C   0  0  0  0  0  0  0  0  0  0  0  0
   -0.5260   25.1310   -2.6380 C   0  0  0  0  0  0  0  0  0  0  0  0
   -0.6170   23.7580   -2.3990 C   0  0  0  0  0  0  0  0  0  0  0  0
   -1.8740   22.7700   -3.2420 S   0  0  0  0  0  0  0  0  0  0  0  0
   -1.5940   21.3980   -3.0340 O   0  0  0  0  0  0  0  0  0  0  0  0
   -1.9660   23.2100   -4.5840 O   0  0  0  0  0  0  0  0  0  0  0  0
   -3.2750   23.1490   -2.4540 N   0  0  0  0  0  0  0  0  0  0  0  0
   -4.4500   22.5530   -2.7750 C   0  0  0  0  0  0  0  0  0  0  0  0
   -4.4770   21.8260   -3.7530 O   0  0  0  0  0  0  0  0  0  0  0  0
   -5.6290   22.8120   -1.9420 C   0  0  0  0  0  0  0  0  0  0  0  0
   -6.7690   21.9990   -2.0770 C   0  0  0  0  0  0  0  0  0  0  0  0
   -7.9080   22.2240   -1.3170 C   0  0  0  0  0  0  0  0  0  0  0  0
   -7.9310   23.2770   -0.3940 C   0  0  0  0  0  0  0  0  0  0  0  0
   -9.0660   23.5560    0.3770 N   0  0  0  0  0  0  0  0  0  0  0  0
  -10.4000   23.1690   -0.1450 C   0  0  0  0  0  0  0  0  0  0  0  0
  -11.4340   24.0860    0.5590 C   0  0  0  0  0  0  0  0  0  0  0  0
  -11.3390   23.8820    2.0470 N   0  3  0  0  0  0  0  0  0  0  0  0
  -12.3320   24.7460    2.6790 C   0  0  0  0  0  0  0  0  0  0  0  0
  -13.6040   23.9370    2.5550 C   0  0  0  0  0  0  0  0  0  0  0  0
  -14.5740   24.2140    1.6570 C   0  0  0  0  0  0  0  0  0  0  0  0
  -14.5220   25.3300    0.7190 C   0  0  0  0  0  0  0  0  0  0  0  0
  -14.5310   25.0970   -0.6630 C   0  0  0  0  0  0  0  0  0  0  0  0
  -14.4470   26.1540   -1.5620 C   0  0  0  0  0  0  0  0  0  0  0  0
  -14.3630   27.4640   -1.0880 C   0  0  0  0  0  0  0  0  0  0  0  0
  -14.2410   28.7820   -2.2060 Cl  0  0  0  0  0  0  0  0  0  0  0  0
  -14.3780   27.7130    0.2850 C   0  0  0  0  0  0  0  0  0  0  0  0
  -14.4620   26.6530    1.1790 C   0  0  0  0  0  0  0  0  0  0  0  0
  -15.7880   23.3040    1.6070 C   0  0  0  0  0  0  0  0  0  0  0  0
  -15.1990   21.8830    1.4820 C   0  0  0  0  0  0  0  0  0  0  0  0
  -14.3120   21.5360    2.7190 C   0  0  0  0  0  0  0  0  0  0  0  0
  -13.1120   20.7050    2.2260 C   0  0  0  0  0  0  0  0  0  0  0  0
  -15.1160   20.6410    3.6780 C   0  0  0  0  0  0  0  0  0  0  0  0
  -13.8030   22.7770    3.5210 C   0  0  0  0  0  0  0  0  0  0  0  0
   -9.9780   24.3160    2.5020 C   0  0  0  0  0  0  0  0  0  0  0  0
   -8.9100   23.4030    1.8430 C   0  0  0  0  0  0  0  0  0  0  0  0
   -6.8060   24.0940   -0.2420 C   0  0  0  0  0  0  0  0  0  0  0  0
   -5.6720   23.8670   -1.0090 C   0  0  0  0  0  0  0  0  0  0  0  0
    0.2870   23.1720   -1.5070 C   0  0  0  0  0  0  0  0  0  0  0  0
    1.2600   23.9270   -0.8460 C   0  0  0  0  0  0  0  0  0  0  0  0
    2.3680   23.1170    0.3300 S   0  0  0  0  0  0  0  0  0  0  0  0
    2.4020   21.7270    0.0240 O   0  0  0  0  0  0  0  0  0  0  0  0
    3.6370   23.7810    0.3050 O   0  0  0  0  0  0  0  0  0  0  0  0
    1.4960   23.4060    1.9880 C   0  0  0  0  0  0  0  0  0  0  0  0
    0.1750   23.0900    1.9690 F   0  0  0  0  0  0  0  0  0  0  0  0
    1.5220   24.6940    2.4070 F   0  0  0  0  0  0  0  0  0  0  0  0
    2.0040   22.7000    3.0240 F   0  0  0  0  0  0  0  0  0  0  0  0
   16.3550   33.6590    0.1080 C   0  0  0  0  0  0  0  0  0  0  0  0
   15.4690   34.9020    0.3370 C   0  0  0  0  0  0  0  0  0  0  0  0
   17.0740   33.3540    1.4390 C   0  0  0  0  0  0  0  0  0  0  0  0
   17.4240   34.0660   -0.9250 C   0  0  0  0  0  0  0  0  0  0  0  0
   22.1090   28.9750    0.5690 C   0  0  0  0  0  0  0  0  0  0  0  0
   22.3610   28.2000    1.6950 C   0  0  0  0  0  0  0  0  0  0  0  0
   22.1860   25.7560    3.8360 S   0  0  0  0  0  0  0  0  0  0  0  0
   22.2870   25.6690    5.5490 C   0  0  0  0  0  0  0  0  0  0  0  0
   22.0410   26.7820    6.1770 N   0  0  0  0  0  0  0  0  0  0  0  0
   21.2440   29.8260    4.9760 H   0  0  0  0  0  0  0  0  0  0  0  0
   22.3070   29.5370    6.3740 H   0  0  0  0  0  0  0  0  0  0  0  0
   20.5790   29.1220    6.4690 H   0  0  0  0  0  0  0  0  0  0  0  0
   19.6590   29.0490    3.5460 H   0  0  0  0  0  0  0  0  0  0  0  0
   19.2160   30.4270    1.5590 H   0  0  0  0  0  0  0  0  0  0  0  0
   21.4420   30.3450   -1.5270 H   0  0  0  0  0  0  0  0  0  0  0  0
   20.2040   32.3680    0.4280 H   0  0  0  0  0  0  0  0  0  0  0  0
   20.7240   32.7360   -1.2340 H   0  0  0  0  0  0  0  0  0  0  0  0
   21.9290   32.2850   -0.0040 H   0  0  0  0  0  0  0  0  0  0  0  0
   18.6480   30.7440   -0.4860 H   0  0  0  0  0  0  0  0  0  0  0  0
   17.2180   28.9600   -1.9860 H   0  0  0  0  0  0  0  0  0  0  0  0
   16.9830   28.5610   -4.2890 H   0  0  0  0  0  0  0  0  0  0  0  0
   17.8880   30.0350   -4.7120 H   0  0  0  0  0  0  0  0  0  0  0  0
   15.6260   30.6760   -5.3200 H   0  0  0  0  0  0  0  0  0  0  0  0
   14.8270   29.2610   -3.0310 H   0  0  0  0  0  0  0  0  0  0  0  0
   14.9330   31.9000   -3.0240 H   0  0  0  0  0  0  0  0  0  0  0  0
   16.4990   32.3410   -3.7470 H   0  0  0  0  0  0  0  0  0  0  0  0
   15.0070   32.8210   -1.3340 H   0  0  0  0  0  0  0  0  0  0  0  0
   14.8020   31.7310    1.4330 H   0  0  0  0  0  0  0  0  0  0  0  0
   12.7660   33.7310   -0.9640 H   0  0  0  0  0  0  0  0  0  0  0  0
   12.9260   32.1120   -1.6860 H   0  0  0  0  0  0  0  0  0  0  0  0
   10.5330   33.0190   -0.0510 H   0  0  0  0  0  0  0  0  0  0  0  0
   10.6260   33.1030   -1.8260 H   0  0  0  0  0  0  0  0  0  0  0  0
   11.0260   30.6070   -1.8460 H   0  0  0  0  0  0  0  0  0  0  0  0
   10.7050   30.5990   -0.0950 H   0  0  0  0  0  0  0  0  0  0  0  0
    8.7870   31.4880   -2.2930 H   0  0  0  0  0  0  0  0  0  0  0  0
    8.4620   31.6280   -0.5490 H   0  0  0  0  0  0  0  0  0  0  0  0
    8.5590   29.1920   -0.2830 H   0  0  0  0  0  0  0  0  0  0  0  0
    9.0700   28.9890   -1.9760 H   0  0  0  0  0  0  0  0  0  0  0  0
    6.9580   29.9390   -2.7910 H   0  0  0  0  0  0  0  0  0  0  0  0
    6.4700   30.3850   -1.1380 H   0  0  0  0  0  0  0  0  0  0  0  0
    6.7350   27.9150   -0.6520 H   0  0  0  0  0  0  0  0  0  0  0  0
    6.6220   27.8400   -3.6010 H   0  0  0  0  0  0  0  0  0  0  0  0
    6.4830   26.4290   -2.5250 H   0  0  0  0  0  0  0  0  0  0  0  0
    8.0100   27.3390   -2.6060 H   0  0  0  0  0  0  0  0  0  0  0  0
    4.6710   29.3850   -1.1870 H   0  0  0  0  0  0  0  0  0  0  0  0
    4.6820   28.4270   -2.6870 H   0  0  0  0  0  0  0  0  0  0  0  0
    4.5980   27.3370    0.1770 H   0  0  0  0  0  0  0  0  0  0  0  0
    4.7730   26.3230   -1.2750 H   0  0  0  0  0  0  0  0  0  0  0  0
    2.6610   27.4330   -2.1710 H   0  0  0  0  0  0  0  0  0  0  0  0
    2.6130   28.6950    0.5540 H   0  0  0  0  0  0  0  0  0  0  0  0
    1.0810   28.2100   -0.2120 H   0  0  0  0  0  0  0  0  0  0  0  0
    1.6990   32.5290   -2.4350 H   0  0  0  0  0  0  0  0  0  0  0  0
    0.5500   34.4570   -1.4160 H   0  0  0  0  0  0  0  0  0  0  0  0
   -0.4110   34.2710    0.8550 H   0  0  0  0  0  0  0  0  0  0  0  0
   -0.2240   32.1470    2.1020 H   0  0  0  0  0  0  0  0  0  0  0  0
    0.9240   30.2100    1.0930 H   0  0  0  0  0  0  0  0  0  0  0  0
    2.7250   25.7720    0.3880 H   0  0  0  0  0  0  0  0  0  0  0  0
    0.4830   26.9640   -2.1860 H   0  0  0  0  0  0  0  0  0  0  0  0
   -1.2140   25.5990   -3.3270 H   0  0  0  0  0  0  0  0  0  0  0  0
   -3.2560   23.8400   -1.7170 H   0  0  0  0  0  0  0  0  0  0  0  0
   -6.7580   21.1840   -2.7860 H   0  0  0  0  0  0  0  0  0  0  0  0
   -8.7740   21.5890   -1.4370 H   0  0  0  0  0  0  0  0  0  0  0  0
  -10.4390   23.3170   -1.2240 H   0  0  0  0  0  0  0  0  0  0  0  0
  -10.6060   22.1240    0.0860 H   0  0  0  0  0  0  0  0  0  0  0  0
  -12.4380   23.8320    0.2190 H   0  0  0  0  0  0  0  0  0  0  0  0
  -11.2210   25.1280    0.3190 H   0  0  0  0  0  0  0  0  0  0  0  0
  -11.4960   22.9140    2.2870 H   0  0  0  0  0  0  0  0  0  0  0  0
  -12.0840   24.9310    3.7240 H   0  0  0  0  0  0  0  0  0  0  0  0
  -12.4180   25.6970    2.1530 H   0  0  0  0  0  0  0  0  0  0  0  0
  -14.6040   24.0850   -1.0340 H   0  0  0  0  0  0  0  0  0  0  0  0
  -14.4470   25.9620   -2.6250 H   0  0  0  0  0  0  0  0  0  0  0  0
  -14.3240   28.7270    0.6520 H   0  0  0  0  0  0  0  0  0  0  0  0
  -14.4810   26.8500    2.2410 H   0  0  0  0  0  0  0  0  0  0  0  0
  -16.3780   23.3980    2.5190 H   0  0  0  0  0  0  0  0  0  0  0  0
  -16.4120   23.5400    0.7450 H   0  0  0  0  0  0  0  0  0  0  0  0
  -14.5900   21.8270    0.5800 H   0  0  0  0  0  0  0  0  0  0  0  0
  -16.0150   21.1630    1.4150 H   0  0  0  0  0  0  0  0  0  0  0  0
  -13.4730   19.8410    1.6680 H   0  0  0  0  0  0  0  0  0  0  0  0
  -12.5280   20.3660    3.0820 H   0  0  0  0  0  0  0  0  0  0  0  0
  -12.4860   21.3200    1.5800 H   0  0  0  0  0  0  0  0  0  0  0  0
  -15.4820   19.7670    3.1390 H   0  0  0  0  0  0  0  0  0  0  0  0
  -15.9610   21.2020    4.0760 H   0  0  0  0  0  0  0  0  0  0  0  0
  -14.4750   20.3190    4.4990 H   0  0  0  0  0  0  0  0  0  0  0  0
  -12.8570   22.5370    4.0060 H   0  0  0  0  0  0  0  0  0  0  0  0
  -14.5390   23.0520    4.2770 H   0  0  0  0  0  0  0  0  0  0  0  0
   -9.8070   25.3510    2.2060 H   0  0  0  0  0  0  0  0  0  0  0  0
   -9.9110   24.2320    3.5870 H   0  0  0  0  0  0  0  0  0  0  0  0
   -9.0730   22.3650    2.1320 H   0  0  0  0  0  0  0  0  0  0  0  0
   -7.9110   23.7120    2.1490 H   0  0  0  0  0  0  0  0  0  0  0  0
   -6.8200   24.9030    0.4730 H   0  0  0  0  0  0  0  0  0  0  0  0
   -4.8110   24.5080   -0.8890 H   0  0  0  0  0  0  0  0  0  0  0  0
    0.2320   22.1090   -1.3240 H   0  0  0  0  0  0  0  0  0  0  0  0
   16.0830   35.7230    0.7080 H   0  0  0  0  0  0  0  0  0  0  0  0
   14.6960   34.6670    1.0690 H   0  0  0  0  0  0  0  0  0  0  0  0
   15.0020   35.1940   -0.6040 H   0  0  0  0  0  0  0  0  0  0  0  0
   17.6520   34.2250    1.7480 H   0  0  0  0  0  0  0  0  0  0  0  0
   17.7420   32.5030    1.3040 H   0  0  0  0  0  0  0  0  0  0  0  0
   16.3350   33.1180    2.2050 H   0  0  0  0  0  0  0  0  0  0  0  0
   18.0110   34.8960   -0.5320 H   0  0  0  0  0  0  0  0  0  0  0  0
   16.9370   34.3710   -1.8510 H   0  0  0  0  0  0  0  0  0  0  0  0
   18.0800   33.2180   -1.1220 H   0  0  0  0  0  0  0  0  0  0  0  0
   22.7950   28.9460   -0.2650 H   0  0  0  0  0  0  0  0  0  0  0  0
   23.2400   27.5730    1.7240 H   0  0  0  0  0  0  0  0  0  0  0  0
   22.5370   24.7550    6.0680 H   0  0  0  0  0  0  0  0  0  0  0  0
  1  2  1  0  0  0  0
  1101  1  0  0  0  0
  1102  1  0  0  0  0
  1103  1  0  0  0  0
  2  3  2  0  0  0  0
  2100  1  0  0  0  0
  3  4  1  0  0  0  0
  3 98  1  0  0  0  0
  4  5  1  0  0  0  0
  4 97  2  0  0  0  0
  5  6  2  0  0  0  0
  5104  1  0  0  0  0
  6  7  1  0  0  0  0
  6105  1  0  0  0  0
  7  8  1  0  0  0  0
  7 96  2  0  0  0  0
  8  9  1  0  0  0  0
  8 10  1  0  0  0  0
  8106  1  0  0  0  0
  9107  1  0  0  0  0
  9108  1  0  0  0  0
  9109  1  0  0  0  0
 10 11  1  0  0  0  0
 10110  1  0  0  0  0
 11 12  2  0  0  0  0
 11 13  1  0  0  0  0
 13 14  1  0  0  0  0
 13 18  1  0  0  0  0
 13111  1  0  0  0  0
 14 15  1  0  0  0  0
 14112  1  0  0  0  0
 14113  1  0  0  0  0
 15 16  1  0  0  0  0
 15 17  1  0  0  0  0
 15114  1  0  0  0  0
 16115  1  0  0  0  0
 17 18  1  0  0  0  0
 17116  1  0  0  0  0
 17117  1  0  0  0  0
 18 19  1  0  0  0  0
 19 20  2  0  0  0  0
 19 21  1  0  0  0  0
 21 22  1  0  0  0  0
 21 92  1  0  0  0  0
 21118  1  0  0  0  0
 22 23  1  0  0  0  0
 22119  1  0  0  0  0
 23 24  2  0  0  0  0
 23 25  1  0  0  0  0
 25 26  1  0  0  0  0
 25120  1  0  0  0  0
 25121  1  0  0  0  0
 26 27  1  0  0  0  0
 26122  1  0  0  0  0
 26123  1  0  0  0  0
 27 28  1  0  0  0  0
 27124  1  0  0  0  0
 27125  1  0  0  0  0
 28 29  1  0  0  0  0
 28126  1  0  0  0  0
 28127  1  0  0  0  0
 29 30  1  0  0  0  0
 29128  1  0  0  0  0
 29129  1  0  0  0  0
 30 31  1  0  0  0  0
 30130  1  0  0  0  0
 30131  1  0  0  0  0
 31 32  1  0  0  0  0
 31 33  1  0  0  0  0
 31132  1  0  0  0  0
 32133  1  0  0  0  0
 32134  1  0  0  0  0
 32135  1  0  0  0  0
 33 34  1  0  0  0  0
 33136  1  0  0  0  0
 33137  1  0  0  0  0
 34 35  1  0  0  0  0
 34138  1  0  0  0  0
 34139  1  0  0  0  0
 35 36  1  0  0  0  0
 35 44  1  0  0  0  0
 35140  1  0  0  0  0
 36 37  1  0  0  0  0
 36141  1  0  0  0  0
 36142  1  0  0  0  0
 37 38  1  0  0  0  0
 38 39  1  0  0  0  0
 38 43  2  0  0  0  0
 39 40  2  0  0  0  0
 39143  1  0  0  0  0
 40 41  1  0  0  0  0
 40144  1  0  0  0  0
 41 42  2  0  0  0  0
 41145  1  0  0  0  0
 42 43  1  0  0  0  0
 42146  1  0  0  0  0
 43147  1  0  0  0  0
 44 45  1  0  0  0  0
 44148  1  0  0  0  0
 45 46  1  0  0  0  0
 45 84  2  0  0  0  0
 46 47  2  0  0  0  0
 46149  1  0  0  0  0
 47 48  1  0  0  0  0
 47150  1  0  0  0  0
 48 49  1  0  0  0  0
 48 83  2  0  0  0  0
 49 50  2  0  0  0  0
 49 51  2  0  0  0  0
 49 52  1  0  0  0  0
 52 53  1  0  0  0  0
 52151  1  0  0  0  0
 53 54  2  0  0  0  0
 53 55  1  0  0  0  0
 55 56  1  0  0  0  0
 55 82  2  0  0  0  0
 56 57  2  0  0  0  0
 56152  1  0  0  0  0
 57 58  1  0  0  0  0
 57153  1  0  0  0  0
 58 59  1  0  0  0  0
 58 81  2  0  0  0  0
 59 60  1  0  0  0  0
 59 80  1  0  0  0  0
 60 61  1  0  0  0  0
 60154  1  0  0  0  0
 60155  1  0  0  0  0
 61 62  1  0  0  0  0
 61156  1  0  0  0  0
 61157  1  0  0  0  0
 62 63  1  0  0  0  0
 62 79  1  0  0  0  0
 62158  1  0  0  0  0
 63 64  1  0  0  0  0
 63159  1  0  0  0  0
 63160  1  0  0  0  0
 64 65  2  0  0  0  0
 64 78  1  0  0  0  0
 65 66  1  0  0  0  0
 65 73  1  0  0  0  0
 66 67  1  0  0  0  0
 66 72  2  0  0  0  0
 67 68  2  0  0  0  0
 67161  1  0  0  0  0
 68 69  1  0  0  0  0
 68162  1  0  0  0  0
 69 70  1  0  0  0  0
 69 71  2  0  0  0  0
 71 72  1  0  0  0  0
 71163  1  0  0  0  0
 72164  1  0  0  0  0
 73 74  1  0  0  0  0
 73165  1  0  0  0  0
 73166  1  0  0  0  0
 74 75  1  0  0  0  0
 74167  1  0  0  0  0
 74168  1  0  0  0  0
 75 76  1  0  0  0  0
 75 77  1  0  0  0  0
 75 78  1  0  0  0  0
 76169  1  0  0  0  0
 76170  1  0  0  0  0
 76171  1  0  0  0  0
 77172  1  0  0  0  0
 77173  1  0  0  0  0
 77174  1  0  0  0  0
 78175  1  0  0  0  0
 78176  1  0  0  0  0
 79 80  1  0  0  0  0
 79177  1  0  0  0  0
 79178  1  0  0  0  0
 80179  1  0  0  0  0
 80180  1  0  0  0  0
 81 82  1  0  0  0  0
 81181  1  0  0  0  0
 82182  1  0  0  0  0
 83 84  1  0  0  0  0
 83183  1  0  0  0  0
 84 85  1  0  0  0  0
 85 86  2  0  0  0  0
 85 87  2  0  0  0  0
 85 88  1  0  0  0  0
 88 89  1  0  0  0  0
 88 90  1  0  0  0  0
 88 91  1  0  0  0  0
 92 93  1  0  0  0  0
 92 94  1  0  0  0  0
 92 95  1  0  0  0  0
 93184  1  0  0  0  0
 93185  1  0  0  0  0
 93186  1  0  0  0  0
 94187  1  0  0  0  0
 94188  1  0  0  0  0
 94189  1  0  0  0  0
 95190  1  0  0  0  0
 95191  1  0  0  0  0
 95192  1  0  0  0  0
 96 97  1  0  0  0  0
 96193  1  0  0  0  0
 97194  1  0  0  0  0
 98 99  1  0  0  0  0
 99100  2  0  0  0  0
 99195  1  0  0  0  0
M  CHG  1  31   1
M  CHG  1  62   1
M  END
>  <Compound ID>
635

>  <Uniprot>
Q07817

>  <Target>
BCL-xL

>  <E3 ligase>
VHL

>  <IC50 (nM, Cellular activities)>
81.3/189/265

>  <Assay (Cellular activities, IC50)>
Inhibit viability of MOLT-4/RS4;11/H146 cells

>  <Article DOI>
10.1016/j.ejmech.2020.112186

>  <Molecular Weight>
1473.327

>  <Exact Mass>
1471.562

>  <XLogP3>
13.98

>  <Heavy Atom Count>
100

>  <Ring Count>
9

>  <Hydrogen Bond Acceptor Count>
16

>  <Hydrogen Bond Donor Count>
5

>  <Rotatable Bond Count>
29

>  <Topological Polar Surface Area>
230.75999

>  <Molecular Formula>
C74H93ClF3N9O9S4

>  <InChI>
InChI=1S/C74H93ClF3N9O9S4/c1-49(51-19-21-53(22-20-51)67-50(2)79-48-98-67)80-70(91)64-42-59(88)46-87(64)71(92)68(72(3,4)5)82-66(89)18-14-9-10-15-36-84(8)37-34-57(47-97-60-16-12-11-13-17-60)81-63-32-31-61(43-65(63)99(93,94)74(76,77)78)100(95,96)83-69(90)54-25-29-58(30-26-54)86-40-38-85(39-41-86)45-55-44-73(6,7)35-33-62(55)52-23-27-56(75)28-24-52/h11-13,16-17,19-32,43,48-49,57,59,64,68,81,88H,9-10,14-15,18,33-42,44-47H2,1-8H3,(H,80,91)(H,82,89)(H,83,90)/t49-,57+,59+,64-,68+/m0/s1

>  <InChI Key>
CZOKQVGGYUWHCE-OIWNBYFASA-N

>  <DC50 (nM)>
71

>  <Assay (DC50/Dmax)>
Degradation of BCL-xL in MOLT-4 cells after 16 h treatment

$$$$
697
  MOE2018           3D

203212  0  0  1  0  0  0  0  0999 V2000
   20.0580   35.7500   -2.1570 C   0  0  0  0  0  0  0  0  0  0  0  0
   19.0790   34.8870   -2.9180 C   0  0  0  0  0  0  0  0  0  0  0  0
   18.6220   33.6610   -2.5050 C   0  0  0  0  0  0  0  0  0  0  0  0
   18.9620   32.9020   -1.3080 C   0  0  0  0  0  0  0  0  0  0  0  0
   20.2960   32.6850   -0.9460 C   0  0  0  0  0  0  0  0  0  0  0  0
   20.6160   31.9480    0.1880 C   0  0  0  0  0  0  0  0  0  0  0  0
   19.6090   31.3960    0.9860 C   0  0  0  0  0  0  0  0  0  0  0  0
   19.9020   30.5780    2.2400 C   0  0  2  0  0  0  0  0  0  0  0  0
   20.2370   31.5600    3.3660 C   0  0  0  0  0  0  0  0  0  0  0  0
   21.1080   29.7940    2.0240 N   0  0  0  0  0  0  0  0  0  0  0  0
   21.2290   28.4730    1.9100 C   0  0  0  0  0  0  0  0  0  0  0  0
   22.3310   28.0490    1.5780 O   0  0  0  0  0  0  0  0  0  0  0  0
   20.0620   27.4840    2.2150 C   0  0  2  0  0  0  0  0  0  0  0  0
   20.5280   26.2470    2.9880 C   0  0  0  0  0  0  0  0  0  0  0  0
   20.9120   25.2270    1.9100 C   0  0  1  0  0  0  0  0  0  0  0  0
   20.4430   23.9510    2.2980 O   0  0  0  0  0  0  0  0  0  0  0  0
   20.2280   25.7200    0.6270 C   0  0  0  0  0  0  0  0  0  0  0  0
   19.4890   26.9250    0.9930 N   0  0  0  0  0  0  0  0  0  0  0  0
   18.4390   27.4840    0.3600 C   0  0  0  0  0  0  0  0  0  0  0  0
   17.8340   28.4130    0.9000 O   0  0  0  0  0  0  0  0  0  0  0  0
   17.9730   26.9660   -1.0340 C   0  0  1  0  0  0  0  0  0  0  0  0
   16.5040   26.9670   -1.1030 N   0  0  0  0  0  0  0  0  0  0  0  0
   15.7700   25.9470   -1.5330 C   0  0  0  0  0  0  0  0  0  0  0  0
   16.2720   24.9060   -1.9360 O   0  0  0  0  0  0  0  0  0  0  0  0
   14.2550   26.1030   -1.4720 C   0  0  0  0  0  0  0  0  0  0  0  0
   13.6880   25.7310   -0.0920 C   0  0  0  0  0  0  0  0  0  0  0  0
   12.1670   25.9340   -0.0450 C   0  0  0  0  0  0  0  0  0  0  0  0
   11.6120   25.4930    1.3200 C   0  0  0  0  0  0  0  0  0  0  0  0
   10.0900   25.7140    1.4480 C   0  0  0  0  0  0  0  0  0  0  0  0
    9.6530   27.1670    1.6930 C   0  0  0  0  0  0  0  0  0  0  0  0
   10.4680   28.0800    1.6220 O   0  0  0  0  0  0  0  0  0  0  0  0
    8.3590   27.4440    1.9600 N   0  0  0  0  0  0  0  0  0  0  0  0
    7.2190   26.5520    1.6420 C   0  0  0  0  0  0  0  0  0  0  0  0
    6.5580   27.1620    0.3730 C   0  0  0  0  0  0  0  0  0  0  0  0
    6.1190   28.5690    0.6850 N   0  3  0  0  0  0  0  0  0  0  0  0
    5.4470   29.1140   -0.5100 C   0  0  0  0  0  0  0  0  0  0  0  0
    4.7390   30.4120   -0.0690 C   0  0  0  0  0  0  0  0  0  0  0  0
    3.3060   30.3530   -0.6300 C   0  0  2  0  0  0  0  0  0  0  0  0
    2.5350   31.6670   -0.4390 C   0  0  0  0  0  0  0  0  0  0  0  0
    3.2890   32.8650   -1.5960 S   0  0  0  0  0  0  0  0  0  0  0  0
    2.3980   34.3630   -1.4160 C   0  0  0  0  0  0  0  0  0  0  0  0
    1.3150   34.5010   -0.5340 C   0  0  0  0  0  0  0  0  0  0  0  0
    0.6500   35.7170   -0.4300 C   0  0  0  0  0  0  0  0  0  0  0  0
    1.0490   36.8050   -1.2000 C   0  0  0  0  0  0  0  0  0  0  0  0
    2.1190   36.6740   -2.0800 C   0  0  0  0  0  0  0  0  0  0  0  0
    2.7900   35.4620   -2.1880 C   0  0  0  0  0  0  0  0  0  0  0  0
    2.6090   29.3480    0.1810 N   0  0  0  0  0  0  0  0  0  0  0  0
    2.1830   28.1320   -0.3660 C   0  0  0  0  0  0  0  0  0  0  0  0
    1.5850   28.1430   -1.6300 C   0  0  0  0  0  0  0  0  0  0  0  0
    1.1580   26.9580   -2.2090 C   0  0  0  0  0  0  0  0  0  0  0  0
    1.2930   25.7420   -1.5370 C   0  0  0  0  0  0  0  0  0  0  0  0
    0.7590   24.1850   -2.3030 S   0  0  0  0  0  0  0  0  0  0  0  0
    1.4580   23.1260   -1.6770 O   0  0  0  0  0  0  0  0  0  0  0  0
    0.9010   24.2860   -3.7070 O   0  0  0  0  0  0  0  0  0  0  0  0
   -0.8340   24.0020   -1.9040 N   0  0  0  0  0  0  0  0  0  0  0  0
   -1.7880   24.8500   -2.3590 C   0  0  0  0  0  0  0  0  0  0  0  0
   -1.4590   25.7180   -3.1480 O   0  0  0  0  0  0  0  0  0  0  0  0
   -3.1500   24.7250   -1.8330 C   0  0  0  0  0  0  0  0  0  0  0  0
   -4.0350   25.8140   -1.9210 C   0  0  0  0  0  0  0  0  0  0  0  0
   -5.3260   25.7330   -1.4190 C   0  0  0  0  0  0  0  0  0  0  0  0
   -5.7660   24.5470   -0.8150 C   0  0  0  0  0  0  0  0  0  0  0  0
   -7.0660   24.4220   -0.2990 N   0  0  0  0  0  0  0  0  0  0  0  0
   -7.1550   24.1340    1.1560 C   0  0  0  0  0  0  0  0  0  0  0  0
   -8.5450   23.4920    1.4090 C   0  0  0  0  0  0  0  0  0  0  0  0
   -9.6040   24.4580    0.9800 N   0  3  0  0  0  0  0  0  0  0  0  0
  -10.9130   23.8730    1.2640 C   0  0  0  0  0  0  0  0  0  0  0  0
  -11.7910   25.0970    1.4170 C   0  0  0  0  0  0  0  0  0  0  0  0
  -12.6410   25.5080    0.4420 C   0  0  0  0  0  0  0  0  0  0  0  0
  -12.8020   24.7950   -0.8210 C   0  0  0  0  0  0  0  0  0  0  0  0
  -12.4830   25.4150   -2.0360 C   0  0  0  0  0  0  0  0  0  0  0  0
  -12.6090   24.7290   -3.2380 C   0  0  0  0  0  0  0  0  0  0  0  0
  -13.0700   23.4120   -3.2420 C   0  0  0  0  0  0  0  0  0  0  0  0
  -13.2110   22.5490   -4.7370 Cl  0  0  0  0  0  0  0  0  0  0  0  0
  -13.4190   22.7910   -2.0420 C   0  0  0  0  0  0  0  0  0  0  0  0
  -13.2910   23.4820   -0.8430 C   0  0  0  0  0  0  0  0  0  0  0  0
  -13.4930   26.7700    0.5560 C   0  0  0  0  0  0  0  0  0  0  0  0
  -13.5750   27.2460    2.0200 C   0  0  0  0  0  0  0  0  0  0  0  0
  -12.1710   27.2480    2.6570 C   0  0  0  0  0  0  0  0  0  0  0  0
  -12.3070   27.8380    4.0710 C   0  0  0  0  0  0  0  0  0  0  0  0
  -11.1480   28.1270    1.9050 C   0  0  0  0  0  0  0  0  0  0  0  0
  -11.6740   25.7910    2.7750 C   0  0  0  0  0  0  0  0  0  0  0  0
   -9.4920   24.6520   -0.5040 C   0  0  0  0  0  0  0  0  0  0  0  0
   -8.1300   25.3230   -0.8170 C   0  0  0  0  0  0  0  0  0  0  0  0
   -4.9020   23.4490   -0.7310 C   0  0  0  0  0  0  0  0  0  0  0  0
   -3.6120   23.5370   -1.2360 C   0  0  0  0  0  0  0  0  0  0  0  0
    1.8990   25.7420   -0.2750 C   0  0  0  0  0  0  0  0  0  0  0  0
    2.3400   26.9220    0.3350 C   0  0  0  0  0  0  0  0  0  0  0  0
    3.1570   26.8090    1.9480 S   0  0  0  0  0  0  0  0  0  0  0  0
    4.0230   25.6790    1.9050 O   0  0  0  0  0  0  0  0  0  0  0  0
    3.8310   28.0430    2.2320 O   0  0  0  0  0  0  0  0  0  0  0  0
    1.7180   26.5300    3.1570 C   0  0  0  0  0  0  0  0  0  0  0  0
    0.8260   27.5420    3.1750 F   0  0  0  0  0  0  0  0  0  0  0  0
    2.0940   26.3740    4.4440 F   0  0  0  0  0  0  0  0  0  0  0  0
    0.9770   25.4340    2.8720 F   0  0  0  0  0  0  0  0  0  0  0  0
    7.3340   29.4010    1.0050 C   0  0  0  0  0  0  0  0  0  0  0  0
    7.9560   28.8310    2.2990 C   0  0  0  0  0  0  0  0  0  0  0  0
   18.5870   27.7660   -2.2350 C   0  0  0  0  0  0  0  0  0  0  0  0
   20.1290   27.7330   -2.2130 C   0  0  0  0  0  0  0  0  0  0  0  0
   18.1620   27.1490   -3.5850 C   0  0  0  0  0  0  0  0  0  0  0  0
   18.1660   29.2480   -2.2500 C   0  0  0  0  0  0  0  0  0  0  0  0
   18.2780   31.6160    0.6300 C   0  0  0  0  0  0  0  0  0  0  0  0
   17.9580   32.3590   -0.5000 C   0  0  0  0  0  0  0  0  0  0  0  0
   17.5080   33.0430   -3.6540 S   0  0  0  0  0  0  0  0  0  0  0  0
   17.7540   34.4540   -4.6040 C   0  0  0  0  0  0  0  0  0  0  0  0
   18.5880   35.3210   -4.1070 N   0  0  0  0  0  0  0  0  0  0  0  0
   20.3430   35.2470   -1.2330 H   0  0  0  0  0  0  0  0  0  0  0  0
   19.5920   36.7070   -1.9210 H   0  0  0  0  0  0  0  0  0  0  0  0
   20.9450   35.9180   -2.7680 H   0  0  0  0  0  0  0  0  0  0  0  0
   21.0870   33.0960   -1.5560 H   0  0  0  0  0  0  0  0  0  0  0  0
   21.6520   31.8000    0.4550 H   0  0  0  0  0  0  0  0  0  0  0  0
   19.0490   29.9410    2.4740 H   0  0  0  0  0  0  0  0  0  0  0  0
   21.0950   32.1670    3.0760 H   0  0  0  0  0  0  0  0  0  0  0  0
   20.4750   31.0050    4.2730 H   0  0  0  0  0  0  0  0  0  0  0  0
   19.3800   32.2070    3.5510 H   0  0  0  0  0  0  0  0  0  0  0  0
   21.9660   30.3210    1.9510 H   0  0  0  0  0  0  0  0  0  0  0  0
   19.3510   28.0830    2.7830 H   0  0  0  0  0  0  0  0  0  0  0  0
   19.7230   25.8600    3.6130 H   0  0  0  0  0  0  0  0  0  0  0  0
   21.3890   26.4870    3.6120 H   0  0  0  0  0  0  0  0  0  0  0  0
   21.9880   25.1390    1.7610 H   0  0  0  0  0  0  0  0  0  0  0  0
   19.4950   24.0190    2.4310 H   0  0  0  0  0  0  0  0  0  0  0  0
   19.5460   24.9600    0.2470 H   0  0  0  0  0  0  0  0  0  0  0  0
   20.9740   25.9510   -0.1330 H   0  0  0  0  0  0  0  0  0  0  0  0
   18.3460   25.9470   -1.1330 H   0  0  0  0  0  0  0  0  0  0  0  0
   16.0200   27.8010   -0.8030 H   0  0  0  0  0  0  0  0  0  0  0  0
   14.0000   27.1400   -1.6880 H   0  0  0  0  0  0  0  0  0  0  0  0
   13.8050   25.4540   -2.2230 H   0  0  0  0  0  0  0  0  0  0  0  0
   13.9140   24.6850    0.1150 H   0  0  0  0  0  0  0  0  0  0  0  0
   14.1550   26.3600    0.6660 H   0  0  0  0  0  0  0  0  0  0  0  0
   11.7010   25.3410   -0.8320 H   0  0  0  0  0  0  0  0  0  0  0  0
   11.9400   26.9880   -0.2020 H   0  0  0  0  0  0  0  0  0  0  0  0
   12.1140   26.0650    2.1010 H   0  0  0  0  0  0  0  0  0  0  0  0
   11.8220   24.4320    1.4550 H   0  0  0  0  0  0  0  0  0  0  0  0
    9.7310   25.1100    2.2810 H   0  0  0  0  0  0  0  0  0  0  0  0
    9.6220   25.3730    0.5240 H   0  0  0  0  0  0  0  0  0  0  0  0
    7.5710   25.5410    1.4400 H   0  0  0  0  0  0  0  0  0  0  0  0
    6.5090   26.5310    2.4690 H   0  0  0  0  0  0  0  0  0  0  0  0
    5.6940   26.5630    0.0860 H   0  0  0  0  0  0  0  0  0  0  0  0
    7.2780   27.1760   -0.4450 H   0  0  0  0  0  0  0  0  0  0  0  0
    5.4890   28.5810    1.4740 H   0  0  0  0  0  0  0  0  0  0  0  0
    6.1800   29.3320   -1.2870 H   0  0  0  0  0  0  0  0  0  0  0  0
    4.7170   28.3990   -0.8890 H   0  0  0  0  0  0  0  0  0  0  0  0
    5.2630   31.2800   -0.4700 H   0  0  0  0  0  0  0  0  0  0  0  0
    4.7130   30.4740    1.0190 H   0  0  0  0  0  0  0  0  0  0  0  0
    3.3540   30.1380   -1.6980 H   0  0  0  0  0  0  0  0  0  0  0  0
    2.6340   32.0180    0.5880 H   0  0  0  0  0  0  0  0  0  0  0  0
    1.4800   31.5250   -0.6750 H   0  0  0  0  0  0  0  0  0  0  0  0
    0.9980   33.6600    0.0650 H   0  0  0  0  0  0  0  0  0  0  0  0
   -0.1810   35.8180    0.2520 H   0  0  0  0  0  0  0  0  0  0  0  0
    0.5300   37.7480   -1.1150 H   0  0  0  0  0  0  0  0  0  0  0  0
    2.4290   37.5160   -2.6810 H   0  0  0  0  0  0  0  0  0  0  0  0
    3.6200   35.3680   -2.8730 H   0  0  0  0  0  0  0  0  0  0  0  0
    2.4320   29.5380    1.1570 H   0  0  0  0  0  0  0  0  0  0  0  0
    1.4550   29.0770   -2.1560 H   0  0  0  0  0  0  0  0  0  0  0  0
    0.7150   26.9760   -3.1940 H   0  0  0  0  0  0  0  0  0  0  0  0
   -1.1040   23.2360   -1.3040 H   0  0  0  0  0  0  0  0  0  0  0  0
   -3.7040   26.7300   -2.3880 H   0  0  0  0  0  0  0  0  0  0  0  0
   -5.9900   26.5810   -1.4930 H   0  0  0  0  0  0  0  0  0  0  0  0
   -6.3650   23.4430    1.4500 H   0  0  0  0  0  0  0  0  0  0  0  0
   -7.0600   25.0580    1.7270 H   0  0  0  0  0  0  0  0  0  0  0  0
   -8.6590   23.2700    2.4700 H   0  0  0  0  0  0  0  0  0  0  0  0
   -8.6340   22.5710    0.8330 H   0  0  0  0  0  0  0  0  0  0  0  0
   -9.4960   25.3360    1.4670 H   0  0  0  0  0  0  0  0  0  0  0  0
  -11.2520   23.2460    0.4400 H   0  0  0  0  0  0  0  0  0  0  0  0
  -10.8920   23.2860    2.1820 H   0  0  0  0  0  0  0  0  0  0  0  0
  -12.1350   26.4370   -2.0390 H   0  0  0  0  0  0  0  0  0  0  0  0
  -12.3510   25.2140   -4.1670 H   0  0  0  0  0  0  0  0  0  0  0  0
  -13.7880   21.7760   -2.0450 H   0  0  0  0  0  0  0  0  0  0  0  0
  -13.5720   23.0010    0.0830 H   0  0  0  0  0  0  0  0  0  0  0  0
  -13.0470   27.5580   -0.0510 H   0  0  0  0  0  0  0  0  0  0  0  0
  -14.4980   26.5560    0.1930 H   0  0  0  0  0  0  0  0  0  0  0  0
  -14.2240   26.5740    2.5810 H   0  0  0  0  0  0  0  0  0  0  0  0
  -13.9850   28.2560    2.0480 H   0  0  0  0  0  0  0  0  0  0  0  0
  -12.6580   28.8680    4.0030 H   0  0  0  0  0  0  0  0  0  0  0  0
  -11.3370   27.8160    4.5680 H   0  0  0  0  0  0  0  0  0  0  0  0
  -13.0220   27.2480    4.6440 H   0  0  0  0  0  0  0  0  0  0  0  0
  -11.5260   29.1470    1.8380 H   0  0  0  0  0  0  0  0  0  0  0  0
  -10.9950   27.7290    0.9020 H   0  0  0  0  0  0  0  0  0  0  0  0
  -10.2010   28.1250    2.4450 H   0  0  0  0  0  0  0  0  0  0  0  0
  -12.2810   25.2590    3.5080 H   0  0  0  0  0  0  0  0  0  0  0  0
  -10.6320   25.7880    3.0950 H   0  0  0  0  0  0  0  0  0  0  0  0
   -9.5490   23.6860   -1.0050 H   0  0  0  0  0  0  0  0  0  0  0  0
  -10.3040   25.2900   -0.8530 H   0  0  0  0  0  0  0  0  0  0  0  0
   -8.0700   26.2930   -0.3240 H   0  0  0  0  0  0  0  0  0  0  0  0
   -8.0170   25.4540   -1.8930 H   0  0  0  0  0  0  0  0  0  0  0  0
   -5.2400   22.5310   -0.2720 H   0  0  0  0  0  0  0  0  0  0  0  0
   -2.9540   22.6830   -1.1700 H   0  0  0  0  0  0  0  0  0  0  0  0
    2.0300   24.8040    0.2430 H   0  0  0  0  0  0  0  0  0  0  0  0
    8.0530   29.3400    0.1880 H   0  0  0  0  0  0  0  0  0  0  0  0
    7.0440   30.4410    1.1570 H   0  0  0  0  0  0  0  0  0  0  0  0
    7.2240   28.8300    3.1060 H   0  0  0  0  0  0  0  0  0  0  0  0
    8.8240   29.4190    2.5970 H   0  0  0  0  0  0  0  0  0  0  0  0
   20.5170   28.2980   -3.0610 H   0  0  0  0  0  0  0  0  0  0  0  0
   20.4710   26.7000   -2.2780 H   0  0  0  0  0  0  0  0  0  0  0  0
   20.4890   28.1770   -1.2850 H   0  0  0  0  0  0  0  0  0  0  0  0
   18.6010   27.7230   -4.4010 H   0  0  0  0  0  0  0  0  0  0  0  0
   17.0750   27.1720   -3.6690 H   0  0  0  0  0  0  0  0  0  0  0  0
   18.5090   26.1170   -3.6380 H   0  0  0  0  0  0  0  0  0  0  0  0
   18.6230   29.7470   -3.1040 H   0  0  0  0  0  0  0  0  0  0  0  0
   18.4960   29.7290   -1.3290 H   0  0  0  0  0  0  0  0  0  0  0  0
   17.0810   29.3170   -2.3270 H   0  0  0  0  0  0  0  0  0  0  0  0
   17.4870   31.2040    1.2400 H   0  0  0  0  0  0  0  0  0  0  0  0
   16.9210   32.5190   -0.7570 H   0  0  0  0  0  0  0  0  0  0  0  0
   17.2520   34.6100   -5.5470 H   0  0  0  0  0  0  0  0  0  0  0  0
  1  2  1  0  0  0  0
  1106  1  0  0  0  0
  1107  1  0  0  0  0
  1108  1  0  0  0  0
  2  3  2  0  0  0  0
  2105  1  0  0  0  0
  3  4  1  0  0  0  0
  3103  1  0  0  0  0
  4  5  1  0  0  0  0
  4102  2  0  0  0  0
  5  6  2  0  0  0  0
  5109  1  0  0  0  0
  6  7  1  0  0  0  0
  6110  1  0  0  0  0
  7  8  1  0  0  0  0
  7101  2  0  0  0  0
  8  9  1  0  0  0  0
  8 10  1  0  0  0  0
  8111  1  0  0  0  0
  9112  1  0  0  0  0
  9113  1  0  0  0  0
  9114  1  0  0  0  0
 10 11  1  0  0  0  0
 10115  1  0  0  0  0
 11 12  2  0  0  0  0
 11 13  1  0  0  0  0
 13 14  1  0  0  0  0
 13 18  1  0  0  0  0
 13116  1  0  0  0  0
 14 15  1  0  0  0  0
 14117  1  0  0  0  0
 14118  1  0  0  0  0
 15 16  1  0  0  0  0
 15 17  1  0  0  0  0
 15119  1  0  0  0  0
 16120  1  0  0  0  0
 17 18  1  0  0  0  0
 17121  1  0  0  0  0
 17122  1  0  0  0  0
 18 19  1  0  0  0  0
 19 20  2  0  0  0  0
 19 21  1  0  0  0  0
 21 22  1  0  0  0  0
 21 97  1  0  0  0  0
 21123  1  0  0  0  0
 22 23  1  0  0  0  0
 22124  1  0  0  0  0
 23 24  2  0  0  0  0
 23 25  1  0  0  0  0
 25 26  1  0  0  0  0
 25125  1  0  0  0  0
 25126  1  0  0  0  0
 26 27  1  0  0  0  0
 26127  1  0  0  0  0
 26128  1  0  0  0  0
 27 28  1  0  0  0  0
 27129  1  0  0  0  0
 27130  1  0  0  0  0
 28 29  1  0  0  0  0
 28131  1  0  0  0  0
 28132  1  0  0  0  0
 29 30  1  0  0  0  0
 29133  1  0  0  0  0
 29134  1  0  0  0  0
 30 31  2  0  0  0  0
 30 32  1  0  0  0  0
 32 33  1  0  0  0  0
 32 96  1  0  0  0  0
 33 34  1  0  0  0  0
 33135  1  0  0  0  0
 33136  1  0  0  0  0
 34 35  1  0  0  0  0
 34137  1  0  0  0  0
 34138  1  0  0  0  0
 35 36  1  0  0  0  0
 35 95  1  0  0  0  0
 35139  1  0  0  0  0
 36 37  1  0  0  0  0
 36140  1  0  0  0  0
 36141  1  0  0  0  0
 37 38  1  0  0  0  0
 37142  1  0  0  0  0
 37143  1  0  0  0  0
 38 39  1  0  0  0  0
 38 47  1  0  0  0  0
 38144  1  0  0  0  0
 39 40  1  0  0  0  0
 39145  1  0  0  0  0
 39146  1  0  0  0  0
 40 41  1  0  0  0  0
 41 42  1  0  0  0  0
 41 46  2  0  0  0  0
 42 43  2  0  0  0  0
 42147  1  0  0  0  0
 43 44  1  0  0  0  0
 43148  1  0  0  0  0
 44 45  2  0  0  0  0
 44149  1  0  0  0  0
 45 46  1  0  0  0  0
 45150  1  0  0  0  0
 46151  1  0  0  0  0
 47 48  1  0  0  0  0
 47152  1  0  0  0  0
 48 49  1  0  0  0  0
 48 87  2  0  0  0  0
 49 50  2  0  0  0  0
 49153  1  0  0  0  0
 50 51  1  0  0  0  0
 50154  1  0  0  0  0
 51 52  1  0  0  0  0
 51 86  2  0  0  0  0
 52 53  2  0  0  0  0
 52 54  2  0  0  0  0
 52 55  1  0  0  0  0
 55 56  1  0  0  0  0
 55155  1  0  0  0  0
 56 57  2  0  0  0  0
 56 58  1  0  0  0  0
 58 59  1  0  0  0  0
 58 85  2  0  0  0  0
 59 60  2  0  0  0  0
 59156  1  0  0  0  0
 60 61  1  0  0  0  0
 60157  1  0  0  0  0
 61 62  1  0  0  0  0
 61 84  2  0  0  0  0
 62 63  1  0  0  0  0
 62 83  1  0  0  0  0
 63 64  1  0  0  0  0
 63158  1  0  0  0  0
 63159  1  0  0  0  0
 64 65  1  0  0  0  0
 64160  1  0  0  0  0
 64161  1  0  0  0  0
 65 66  1  0  0  0  0
 65 82  1  0  0  0  0
 65162  1  0  0  0  0
 66 67  1  0  0  0  0
 66163  1  0  0  0  0
 66164  1  0  0  0  0
 67 68  2  0  0  0  0
 67 81  1  0  0  0  0
 68 69  1  0  0  0  0
 68 76  1  0  0  0  0
 69 70  1  0  0  0  0
 69 75  2  0  0  0  0
 70 71  2  0  0  0  0
 70165  1  0  0  0  0
 71 72  1  0  0  0  0
 71166  1  0  0  0  0
 72 73  1  0  0  0  0
 72 74  2  0  0  0  0
 74 75  1  0  0  0  0
 74167  1  0  0  0  0
 75168  1  0  0  0  0
 76 77  1  0  0  0  0
 76169  1  0  0  0  0
 76170  1  0  0  0  0
 77 78  1  0  0  0  0
 77171  1  0  0  0  0
 77172  1  0  0  0  0
 78 79  1  0  0  0  0
 78 80  1  0  0  0  0
 78 81  1  0  0  0  0
 79173  1  0  0  0  0
 79174  1  0  0  0  0
 79175  1  0  0  0  0
 80176  1  0  0  0  0
 80177  1  0  0  0  0
 80178  1  0  0  0  0
 81179  1  0  0  0  0
 81180  1  0  0  0  0
 82 83  1  0  0  0  0
 82181  1  0  0  0  0
 82182  1  0  0  0  0
 83183  1  0  0  0  0
 83184  1  0  0  0  0
 84 85  1  0  0  0  0
 84185  1  0  0  0  0
 85186  1  0  0  0  0
 86 87  1  0  0  0  0
 86187  1  0  0  0  0
 87 88  1  0  0  0  0
 88 89  2  0  0  0  0
 88 90  2  0  0  0  0
 88 91  1  0  0  0  0
 91 92  1  0  0  0  0
 91 93  1  0  0  0  0
 91 94  1  0  0  0  0
 95 96  1  0  0  0  0
 95188  1  0  0  0  0
 95189  1  0  0  0  0
 96190  1  0  0  0  0
 96191  1  0  0  0  0
 97 98  1  0  0  0  0
 97 99  1  0  0  0  0
 97100  1  0  0  0  0
 98192  1  0  0  0  0
 98193  1  0  0  0  0
 98194  1  0  0  0  0
 99195  1  0  0  0  0
 99196  1  0  0  0  0
 99197  1  0  0  0  0
100198  1  0  0  0  0
100199  1  0  0  0  0
100200  1  0  0  0  0
101102  1  0  0  0  0
101201  1  0  0  0  0
102202  1  0  0  0  0
103104  1  0  0  0  0
104105  2  0  0  0  0
104203  1  0  0  0  0
M  CHG  1  35   1
M  CHG  1  65   1
M  END
>  <Compound ID>
697

>  <Uniprot>
Q07817

>  <Target>
BCL-xL

>  <E3 ligase>
VHL

>  <IC50 (nM, Cellular activities)>
77.1/213/278

>  <Assay (Cellular activities, IC50)>
Inhibit viability of MOLT-4/RS4;11/H146 cells

>  <Article DOI>
10.1016/j.ejmech.2020.112186

>  <Molecular Weight>
1542.39

>  <Exact Mass>
1540.5835

>  <XLogP3>
12.83

>  <Heavy Atom Count>
105

>  <Ring Count>
10

>  <Hydrogen Bond Acceptor Count>
17

>  <Hydrogen Bond Donor Count>
5

>  <Rotatable Bond Count>
28

>  <Topological Polar Surface Area>
251.07001

>  <Molecular Formula>
C77H96ClF3N10O10S4

>  <InChI>
InChI=1S/C77H96ClF3N10O10S4/c1-51(53-18-20-55(21-19-53)70-52(2)82-50-103-70)83-73(96)66-44-61(92)48-91(66)74(97)71(75(3,4)5)85-68(93)16-12-9-13-17-69(94)90-42-36-87(37-43-90)35-33-59(49-102-62-14-10-8-11-15-62)84-65-31-30-63(45-67(65)104(98,99)77(79,80)81)105(100,101)86-72(95)56-24-28-60(29-25-56)89-40-38-88(39-41-89)47-57-46-76(6,7)34-32-64(57)54-22-26-58(78)27-23-54/h8,10-11,14-15,18-31,45,50-51,59,61,66,71,84,92H,9,12-13,16-17,32-44,46-49H2,1-7H3,(H,83,96)(H,85,93)(H,86,95)/t51-,59+,61+,66-,71+/m0/s1

>  <InChI Key>
PXVFFBGSTYQHRO-REQIQPEASA-N

>  <DC50 (nM)>
53

>  <Assay (DC50/Dmax)>
Degradation of BCL-xL in MOLT-4 cells after 16 h treatment

>  <Name>
DT2216

$$$$
2385
  MOE2018           3D

213222  0  0  1  0  0  0  0  0999 V2000
   14.1360  -26.7350    1.6600 C   0  0  0  0  0  0  0  0  0  0  0  0
   14.3780  -26.9170    0.1800 C   0  0  0  0  0  0  0  0  0  0  0  0
   13.4440  -27.3520   -0.7270 C   0  0  0  0  0  0  0  0  0  0  0  0
   12.0580  -27.7520   -0.5100 C   0  0  0  0  0  0  0  0  0  0  0  0
   11.7160  -28.6510    0.5060 C   0  0  0  0  0  0  0  0  0  0  0  0
   10.3930  -29.0230    0.7140 C   0  0  0  0  0  0  0  0  0  0  0  0
    9.3740  -28.5110   -0.0950 C   0  0  0  0  0  0  0  0  0  0  0  0
    7.9140  -28.9000    0.1000 C   0  0  2  0  0  0  0  0  0  0  0  0
    7.4830  -28.5270    1.5270 C   0  0  0  0  0  0  0  0  0  0  0  0
    7.8610  -30.3440   -0.0130 N   0  0  0  0  0  0  0  0  0  0  0  0
    6.7420  -31.0170   -0.2940 C   0  0  0  0  0  0  0  0  0  0  0  0
    5.6760  -30.4250   -0.4500 O   0  0  0  0  0  0  0  0  0  0  0  0
    6.8510  -32.5650   -0.3820 C   0  0  2  0  0  0  0  0  0  0  0  0
    7.4670  -33.0670   -1.6930 C   0  0  0  0  0  0  0  0  0  0  0  0
    6.9680  -34.5070   -1.7640 C   0  0  1  0  0  0  0  0  0  0  0  0
    7.7170  -35.3130   -0.8750 O   0  0  0  0  0  0  0  0  0  0  0  0
    5.5380  -34.3500   -1.2530 C   0  0  0  0  0  0  0  0  0  0  0  0
    5.6150  -33.3380   -0.2060 N   0  0  0  0  0  0  0  0  0  0  0  0
    5.2630  -33.6480    1.0510 C   0  0  0  0  0  0  0  0  0  0  0  0
    5.6590  -34.7130    1.5250 O   0  0  0  0  0  0  0  0  0  0  0  0
    4.4870  -32.5690    1.8750 C   0  0  1  0  0  0  0  0  0  0  0  0
    3.5540  -31.7770    1.0480 N   0  0  0  0  0  0  0  0  0  0  0  0
    2.6350  -32.2810    0.2270 C   0  0  0  0  0  0  0  0  0  0  0  0
    2.3770  -33.4750    0.1560 O   0  0  0  0  0  0  0  0  0  0  0  0
    1.8970  -31.2880   -0.6610 C   0  0  0  0  0  0  0  0  0  0  0  0
    0.9840  -30.3470    0.1450 C   0  0  0  0  0  0  0  0  0  0  0  0
    0.1620  -29.4420   -0.7830 C   0  0  0  0  0  0  0  0  0  0  0  0
   -0.6560  -28.4390    0.0410 C   0  0  0  0  0  0  0  0  0  0  0  0
   -1.5420  -27.5770   -0.8680 C   0  0  0  0  0  0  0  0  0  0  0  0
   -2.2440  -26.4860   -0.0480 C   0  0  0  0  0  0  0  0  0  0  0  0
   -3.1770  -25.6490   -0.9350 C   0  0  0  0  0  0  0  0  0  0  0  0
   -3.7430  -24.4540   -0.1470 C   0  0  0  0  0  0  0  0  0  0  0  0
   -4.7340  -23.6170   -0.9470 C   0  0  0  0  0  0  0  0  0  0  0  0
   -5.8800  -23.4450   -0.5370 O   0  0  0  0  0  0  0  0  0  0  0  0
   -4.2920  -23.0520   -2.0720 N   0  0  0  0  0  0  0  0  0  0  0  0
   -5.1180  -22.2000   -2.9190 C   0  0  0  0  0  0  0  0  0  0  0  0
   -4.5230  -20.7840   -3.1810 C   0  0  2  0  0  0  0  0  0  0  0  0
   -3.8240  -20.8340   -4.5560 C   0  0  0  0  0  0  0  0  0  0  0  0
   -3.4670  -20.2240   -2.1950 C   0  0  0  0  0  0  0  0  0  0  0  0
   -4.0220  -20.1190   -0.7600 C   0  0  0  0  0  0  0  0  0  0  0  0
   -5.4830  -19.6870   -0.7370 C   0  0  0  0  0  0  0  0  0  0  0  0
   -5.9980  -19.4430    0.6060 C   0  0  0  0  0  0  0  0  0  0  0  0
   -6.0430  -20.4760    1.5540 C   0  0  0  0  0  0  0  0  0  0  0  0
   -6.5550  -20.2510    2.8250 C   0  0  0  0  0  0  0  0  0  0  0  0
   -7.0240  -18.9830    3.1720 C   0  0  0  0  0  0  0  0  0  0  0  0
   -7.6770  -18.7040    4.7520 Cl  0  0  0  0  0  0  0  0  0  0  0  0
   -6.9650  -17.9400    2.2470 C   0  0  0  0  0  0  0  0  0  0  0  0
   -6.4510  -18.1690    0.9760 C   0  0  0  0  0  0  0  0  0  0  0  0
   -6.2480  -19.5790   -1.8530 C   0  0  0  0  0  0  0  0  0  0  0  0
   -7.7300  -19.2600   -1.7740 C   0  0  0  0  0  0  0  0  0  0  0  0
   -8.3850  -20.5650   -1.9490 N   0  3  0  0  0  0  0  0  0  0  0  0
   -9.8490  -20.3250   -2.1730 C   0  0  0  0  0  0  0  0  0  0  0  0
  -10.5660  -21.6890   -2.3600 C   0  0  0  0  0  0  0  0  0  0  0  0
  -10.3480  -22.4390   -1.1050 N   0  0  0  0  0  0  0  0  0  0  0  0
  -11.2860  -23.3880   -0.6820 C   0  0  0  0  0  0  0  0  0  0  0  0
  -11.3780  -23.6720    0.6840 C   0  0  0  0  0  0  0  0  0  0  0  0
  -12.3190  -24.5820    1.1430 C   0  0  0  0  0  0  0  0  0  0  0  0
  -13.1960  -25.2240    0.2500 C   0  0  0  0  0  0  0  0  0  0  0  0
  -14.2200  -26.1550    0.7250 C   0  0  0  0  0  0  0  0  0  0  0  0
  -14.7170  -27.0210    0.0250 O   0  0  0  0  0  0  0  0  0  0  0  0
  -14.6830  -26.0030    1.9880 N   0  0  0  0  0  0  0  0  0  0  0  0
  -15.9380  -26.9090    2.5590 S   0  0  0  0  0  0  0  0  0  0  0  0
  -15.6420  -28.2860    2.4140 O   0  0  0  0  0  0  0  0  0  0  0  0
  -16.1990  -26.4590    3.8750 O   0  0  0  0  0  0  0  0  0  0  0  0
  -17.3680  -26.4980    1.5230 C   0  0  0  0  0  0  0  0  0  0  0  0
  -17.7350  -27.3260    0.4610 C   0  0  0  0  0  0  0  0  0  0  0  0
  -18.8620  -27.0480   -0.2950 C   0  0  0  0  0  0  0  0  0  0  0  0
  -19.6590  -25.9420    0.0040 C   0  0  0  0  0  0  0  0  0  0  0  0
  -20.7970  -25.7910   -0.8030 N   0  0  0  0  0  0  0  0  0  0  0  0
  -22.1100  -26.2910   -0.3510 C   0  0  2  0  0  0  0  0  0  0  0  0
  -22.0010  -27.7980   -0.0500 C   0  0  0  0  0  0  0  0  0  0  0  0
  -23.3240  -28.2010    0.6420 C   0  0  0  0  0  0  0  0  0  0  0  0
  -23.2380  -29.5800    1.2150 N   0  3  0  0  0  0  0  0  0  0  0  0
  -22.8220  -30.5780    0.1720 C   0  0  0  0  0  0  0  0  0  0  0  0
  -22.8670  -31.9780    0.8290 C   0  0  0  0  0  0  0  0  0  0  0  0
  -21.9570  -31.9530    1.9270 O   0  0  0  0  0  0  0  0  0  0  0  0
  -22.2880  -31.0290    2.9630 C   0  0  0  0  0  0  0  0  0  0  0  0
  -22.2380  -29.6150    2.3400 C   0  0  0  0  0  0  0  0  0  0  0  0
  -23.0890  -25.9840   -1.4990 C   0  0  0  0  0  0  0  0  0  0  0  0
  -23.2720  -24.1660   -1.4970 S   0  0  0  0  0  0  0  0  0  0  0  0
  -24.5910  -23.8280   -2.5940 C   0  0  0  0  0  0  0  0  0  0  0  0
  -24.9370  -24.7000   -3.6370 C   0  0  0  0  0  0  0  0  0  0  0  0
  -26.0040  -24.3970   -4.4740 C   0  0  0  0  0  0  0  0  0  0  0  0
  -26.7310  -23.2240   -4.2890 C   0  0  0  0  0  0  0  0  0  0  0  0
  -26.3840  -22.3490   -3.2640 C   0  0  0  0  0  0  0  0  0  0  0  0
  -25.3180  -22.6460   -2.4230 C   0  0  0  0  0  0  0  0  0  0  0  0
  -19.2930  -25.0620    1.0420 C   0  0  0  0  0  0  0  0  0  0  0  0
  -20.2260  -23.5690    1.4630 S   0  0  0  0  0  0  0  0  0  0  0  0
  -19.6560  -23.0190    2.6470 O   0  0  0  0  0  0  0  0  0  0  0  0
  -21.6080  -23.9040    1.5620 O   0  0  0  0  0  0  0  0  0  0  0  0
  -19.9060  -22.4090   -0.0060 C   0  0  0  0  0  0  0  0  0  0  0  0
  -18.5970  -22.0950   -0.1710 F   0  0  0  0  0  0  0  0  0  0  0  0
  -20.5390  -21.2150    0.0660 F   0  0  0  0  0  0  0  0  0  0  0  0
  -20.2720  -22.9210   -1.2040 F   0  0  0  0  0  0  0  0  0  0  0  0
  -18.1560  -25.3760    1.7990 C   0  0  0  0  0  0  0  0  0  0  0  0
  -13.0750  -24.9460   -1.1220 C   0  0  0  0  0  0  0  0  0  0  0  0
  -12.1350  -24.0360   -1.5880 C   0  0  0  0  0  0  0  0  0  0  0  0
   -8.9200  -22.7230   -0.8000 C   0  0  0  0  0  0  0  0  0  0  0  0
   -8.2210  -21.3480   -0.6660 C   0  0  0  0  0  0  0  0  0  0  0  0
   -5.6790  -19.7580   -3.2590 C   0  0  0  0  0  0  0  0  0  0  0  0
    3.8760  -32.9840    3.2620 C   0  0  0  0  0  0  0  0  0  0  0  0
    2.8950  -34.1700    3.1960 C   0  0  0  0  0  0  0  0  0  0  0  0
    4.9920  -33.3430    4.2670 C   0  0  0  0  0  0  0  0  0  0  0  0
    3.1150  -31.8010    3.9050 C   0  0  0  0  0  0  0  0  0  0  0  0
    9.7120  -27.6230   -1.1170 C   0  0  0  0  0  0  0  0  0  0  0  0
   11.0360  -27.2500   -1.3230 C   0  0  0  0  0  0  0  0  0  0  0  0
   14.1390  -27.3870   -2.2950 S   0  0  0  0  0  0  0  0  0  0  0  0
   15.6210  -26.8400   -1.6190 C   0  0  0  0  0  0  0  0  0  0  0  0
   15.6040  -26.6390   -0.3330 N   0  0  0  0  0  0  0  0  0  0  0  0
   13.1060  -27.0020    1.8950 H   0  0  0  0  0  0  0  0  0  0  0  0
   14.3130  -25.6940    1.9320 H   0  0  0  0  0  0  0  0  0  0  0  0
   14.8150  -27.3770    2.2210 H   0  0  0  0  0  0  0  0  0  0  0  0
   12.4900  -29.0610    1.1370 H   0  0  0  0  0  0  0  0  0  0  0  0
   10.1500  -29.7140    1.5080 H   0  0  0  0  0  0  0  0  0  0  0  0
    7.2710  -28.4000   -0.6250 H   0  0  0  0  0  0  0  0  0  0  0  0
    8.1300  -29.0300    2.2450 H   0  0  0  0  0  0  0  0  0  0  0  0
    6.4510  -28.8380    1.6880 H   0  0  0  0  0  0  0  0  0  0  0  0
    7.5620  -27.4480    1.6600 H   0  0  0  0  0  0  0  0  0  0  0  0
    8.7130  -30.8680    0.1280 H   0  0  0  0  0  0  0  0  0  0  0  0
    7.4970  -32.7450    0.4770 H   0  0  0  0  0  0  0  0  0  0  0  0
    8.5560  -33.0290   -1.6560 H   0  0  0  0  0  0  0  0  0  0  0  0
    7.1120  -32.4850   -2.5430 H   0  0  0  0  0  0  0  0  0  0  0  0
    7.0460  -34.9710   -2.7470 H   0  0  0  0  0  0  0  0  0  0  0  0
    7.6580  -34.9160   -0.0030 H   0  0  0  0  0  0  0  0  0  0  0  0
    5.1710  -35.2930   -0.8470 H   0  0  0  0  0  0  0  0  0  0  0  0
    4.8790  -34.0200   -2.0560 H   0  0  0  0  0  0  0  0  0  0  0  0
    5.3020  -31.9190    2.1930 H   0  0  0  0  0  0  0  0  0  0  0  0
    3.6180  -30.7710    1.1100 H   0  0  0  0  0  0  0  0  0  0  0  0
    2.6300  -30.6880   -1.2000 H   0  0  0  0  0  0  0  0  0  0  0  0
    1.2870  -31.8420   -1.3740 H   0  0  0  0  0  0  0  0  0  0  0  0
    0.3040  -30.9450    0.7520 H   0  0  0  0  0  0  0  0  0  0  0  0
    1.5990  -29.7250    0.7950 H   0  0  0  0  0  0  0  0  0  0  0  0
    0.8360  -28.8990   -1.4450 H   0  0  0  0  0  0  0  0  0  0  0  0
   -0.5150  -30.0560   -1.3770 H   0  0  0  0  0  0  0  0  0  0  0  0
   -1.2880  -28.9840    0.7420 H   0  0  0  0  0  0  0  0  0  0  0  0
    0.0250  -27.7920    0.5930 H   0  0  0  0  0  0  0  0  0  0  0  0
   -2.2930  -28.2090   -1.3430 H   0  0  0  0  0  0  0  0  0  0  0  0
   -0.9240  -27.1090   -1.6340 H   0  0  0  0  0  0  0  0  0  0  0  0
   -1.4920  -25.8330    0.3950 H   0  0  0  0  0  0  0  0  0  0  0  0
   -2.8290  -26.9550    0.7430 H   0  0  0  0  0  0  0  0  0  0  0  0
   -4.0010  -26.2740   -1.2790 H   0  0  0  0  0  0  0  0  0  0  0  0
   -2.6180  -25.2790   -1.7950 H   0  0  0  0  0  0  0  0  0  0  0  0
   -2.9130  -23.8140    0.1530 H   0  0  0  0  0  0  0  0  0  0  0  0
   -4.2490  -24.8340    0.7410 H   0  0  0  0  0  0  0  0  0  0  0  0
   -3.3370  -23.2230   -2.3510 H   0  0  0  0  0  0  0  0  0  0  0  0
   -5.2490  -22.6980   -3.8800 H   0  0  0  0  0  0  0  0  0  0  0  0
   -6.0880  -22.0790   -2.4380 H   0  0  0  0  0  0  0  0  0  0  0  0
   -3.3920  -19.8590   -4.7800 H   0  0  0  0  0  0  0  0  0  0  0  0
   -4.5520  -21.0940   -5.3250 H   0  0  0  0  0  0  0  0  0  0  0  0
   -3.0340  -21.5850   -4.5350 H   0  0  0  0  0  0  0  0  0  0  0  0
   -2.6020  -20.8870   -2.1910 H   0  0  0  0  0  0  0  0  0  0  0  0
   -3.1630  -19.2320   -2.5290 H   0  0  0  0  0  0  0  0  0  0  0  0
   -3.4310  -19.3880   -0.2080 H   0  0  0  0  0  0  0  0  0  0  0  0
   -3.9370  -21.0930   -0.2790 H   0  0  0  0  0  0  0  0  0  0  0  0
   -5.6750  -21.4570    1.2920 H   0  0  0  0  0  0  0  0  0  0  0  0
   -6.5900  -21.0560    3.5440 H   0  0  0  0  0  0  0  0  0  0  0  0
   -7.3180  -16.9560    2.5180 H   0  0  0  0  0  0  0  0  0  0  0  0
   -6.4000  -17.3570    0.2660 H   0  0  0  0  0  0  0  0  0  0  0  0
   -8.0210  -18.5710   -2.5670 H   0  0  0  0  0  0  0  0  0  0  0  0
   -7.9820  -18.8270   -0.8060 H   0  0  0  0  0  0  0  0  0  0  0  0
   -7.9840  -21.0690   -2.7270 H   0  0  0  0  0  0  0  0  0  0  0  0
  -10.2700  -19.8070   -1.3110 H   0  0  0  0  0  0  0  0  0  0  0  0
   -9.9860  -19.7150   -3.0660 H   0  0  0  0  0  0  0  0  0  0  0  0
  -10.1370  -22.2300   -3.2040 H   0  0  0  0  0  0  0  0  0  0  0  0
  -11.6320  -21.5370   -2.5300 H   0  0  0  0  0  0  0  0  0  0  0  0
  -10.7160  -23.1820    1.3830 H   0  0  0  0  0  0  0  0  0  0  0  0
  -12.3790  -24.8000    2.1990 H   0  0  0  0  0  0  0  0  0  0  0  0
  -14.2510  -25.3200    2.5940 H   0  0  0  0  0  0  0  0  0  0  0  0
  -17.1340  -28.1920    0.2260 H   0  0  0  0  0  0  0  0  0  0  0  0
  -19.1260  -27.6910   -1.1210 H   0  0  0  0  0  0  0  0  0  0  0  0
  -20.7170  -25.3360   -1.7010 H   0  0  0  0  0  0  0  0  0  0  0  0
  -22.4580  -25.8190    0.5680 H   0  0  0  0  0  0  0  0  0  0  0  0
  -21.8730  -28.3590   -0.9760 H   0  0  0  0  0  0  0  0  0  0  0  0
  -21.1560  -27.9900    0.6110 H   0  0  0  0  0  0  0  0  0  0  0  0
  -24.1310  -28.1700   -0.0900 H   0  0  0  0  0  0  0  0  0  0  0  0
  -23.5340  -27.4950    1.4450 H   0  0  0  0  0  0  0  0  0  0  0  0
  -24.1560  -29.8240    1.5580 H   0  0  0  0  0  0  0  0  0  0  0  0
  -23.5080  -30.5410   -0.6740 H   0  0  0  0  0  0  0  0  0  0  0  0
  -21.8110  -30.3590   -0.1710 H   0  0  0  0  0  0  0  0  0  0  0  0
  -22.5650  -32.7390    0.1100 H   0  0  0  0  0  0  0  0  0  0  0  0
  -23.8750  -32.1930    1.1830 H   0  0  0  0  0  0  0  0  0  0  0  0
  -23.2880  -31.2350    3.3430 H   0  0  0  0  0  0  0  0  0  0  0  0
  -21.5670  -31.1050    3.7770 H   0  0  0  0  0  0  0  0  0  0  0  0
  -21.2380  -29.4130    1.9560 H   0  0  0  0  0  0  0  0  0  0  0  0
  -22.4960  -28.8680    3.0910 H   0  0  0  0  0  0  0  0  0  0  0  0
  -24.0510  -26.4650   -1.3210 H   0  0  0  0  0  0  0  0  0  0  0  0
  -22.6820  -26.3260   -2.4500 H   0  0  0  0  0  0  0  0  0  0  0  0
  -24.3730  -25.6080   -3.7900 H   0  0  0  0  0  0  0  0  0  0  0  0
  -26.2710  -25.0740   -5.2720 H   0  0  0  0  0  0  0  0  0  0  0  0
  -27.5620  -22.9940   -4.9390 H   0  0  0  0  0  0  0  0  0  0  0  0
  -26.9440  -21.4370   -3.1220 H   0  0  0  0  0  0  0  0  0  0  0  0
  -25.0500  -21.9600   -1.6330 H   0  0  0  0  0  0  0  0  0  0  0  0
  -17.8800  -24.7320    2.6210 H   0  0  0  0  0  0  0  0  0  0  0  0
  -13.7230  -25.4480   -1.8250 H   0  0  0  0  0  0  0  0  0  0  0  0
  -12.0590  -23.8290   -2.6450 H   0  0  0  0  0  0  0  0  0  0  0  0
   -8.8370  -23.2810    0.1330 H   0  0  0  0  0  0  0  0  0  0  0  0
   -8.4690  -23.2980   -1.6080 H   0  0  0  0  0  0  0  0  0  0  0  0
   -7.1600  -21.4990   -0.4670 H   0  0  0  0  0  0  0  0  0  0  0  0
   -8.6700  -20.7920    0.1570 H   0  0  0  0  0  0  0  0  0  0  0  0
   -6.4560  -20.1270   -3.9280 H   0  0  0  0  0  0  0  0  0  0  0  0
   -5.3030  -18.8050   -3.6300 H   0  0  0  0  0  0  0  0  0  0  0  0
    2.5220  -34.3890    4.1960 H   0  0  0  0  0  0  0  0  0  0  0  0
    3.4100  -35.0460    2.8010 H   0  0  0  0  0  0  0  0  0  0  0  0
    2.0590  -33.9150    2.5440 H   0  0  0  0  0  0  0  0  0  0  0  0
    4.5450  -33.6270    5.2200 H   0  0  0  0  0  0  0  0  0  0  0  0
    5.6410  -32.4800    4.4130 H   0  0  0  0  0  0  0  0  0  0  0  0
    5.5780  -34.1760    3.8780 H   0  0  0  0  0  0  0  0  0  0  0  0
    2.7010  -32.1130    4.8640 H   0  0  0  0  0  0  0  0  0  0  0  0
    2.3060  -31.4880    3.2450 H   0  0  0  0  0  0  0  0  0  0  0  0
    3.8010  -30.9680    4.0590 H   0  0  0  0  0  0  0  0  0  0  0  0
    8.9380  -27.2210   -1.7540 H   0  0  0  0  0  0  0  0  0  0  0  0
   11.2780  -26.5640   -2.1210 H   0  0  0  0  0  0  0  0  0  0  0  0
   16.5040  -26.6750   -2.2190 H   0  0  0  0  0  0  0  0  0  0  0  0
  1  2  1  0  0  0  0
  1110  1  0  0  0  0
  1111  1  0  0  0  0
  1112  1  0  0  0  0
  2  3  2  0  0  0  0
  2109  1  0  0  0  0
  3  4  1  0  0  0  0
  3107  1  0  0  0  0
  4  5  1  0  0  0  0
  4106  2  0  0  0  0
  5  6  2  0  0  0  0
  5113  1  0  0  0  0
  6  7  1  0  0  0  0
  6114  1  0  0  0  0
  7  8  1  0  0  0  0
  7105  2  0  0  0  0
  8  9  1  0  0  0  0
  8 10  1  0  0  0  0
  8115  1  0  0  0  0
  9116  1  0  0  0  0
  9117  1  0  0  0  0
  9118  1  0  0  0  0
 10 11  1  0  0  0  0
 10119  1  0  0  0  0
 11 12  2  0  0  0  0
 11 13  1  0  0  0  0
 13 14  1  0  0  0  0
 13 18  1  0  0  0  0
 13120  1  0  0  0  0
 14 15  1  0  0  0  0
 14121  1  0  0  0  0
 14122  1  0  0  0  0
 15 16  1  0  0  0  0
 15 17  1  0  0  0  0
 15123  1  0  0  0  0
 16124  1  0  0  0  0
 17 18  1  0  0  0  0
 17125  1  0  0  0  0
 17126  1  0  0  0  0
 18 19  1  0  0  0  0
 19 20  2  0  0  0  0
 19 21  1  0  0  0  0
 21 22  1  0  0  0  0
 21101  1  0  0  0  0
 21127  1  0  0  0  0
 22 23  1  0  0  0  0
 22128  1  0  0  0  0
 23 24  2  0  0  0  0
 23 25  1  0  0  0  0
 25 26  1  0  0  0  0
 25129  1  0  0  0  0
 25130  1  0  0  0  0
 26 27  1  0  0  0  0
 26131  1  0  0  0  0
 26132  1  0  0  0  0
 27 28  1  0  0  0  0
 27133  1  0  0  0  0
 27134  1  0  0  0  0
 28 29  1  0  0  0  0
 28135  1  0  0  0  0
 28136  1  0  0  0  0
 29 30  1  0  0  0  0
 29137  1  0  0  0  0
 29138  1  0  0  0  0
 30 31  1  0  0  0  0
 30139  1  0  0  0  0
 30140  1  0  0  0  0
 31 32  1  0  0  0  0
 31141  1  0  0  0  0
 31142  1  0  0  0  0
 32 33  1  0  0  0  0
 32143  1  0  0  0  0
 32144  1  0  0  0  0
 33 34  2  0  0  0  0
 33 35  1  0  0  0  0
 35 36  1  0  0  0  0
 35145  1  0  0  0  0
 36 37  1  0  0  0  0
 36146  1  0  0  0  0
 36147  1  0  0  0  0
 37 38  1  0  0  0  0
 37 39  1  0  0  0  0
 37100  1  0  0  0  0
 38148  1  0  0  0  0
 38149  1  0  0  0  0
 38150  1  0  0  0  0
 39 40  1  0  0  0  0
 39151  1  0  0  0  0
 39152  1  0  0  0  0
 40 41  1  0  0  0  0
 40153  1  0  0  0  0
 40154  1  0  0  0  0
 41 42  1  0  0  0  0
 41 49  2  0  0  0  0
 42 43  1  0  0  0  0
 42 48  2  0  0  0  0
 43 44  2  0  0  0  0
 43155  1  0  0  0  0
 44 45  1  0  0  0  0
 44156  1  0  0  0  0
 45 46  1  0  0  0  0
 45 47  2  0  0  0  0
 47 48  1  0  0  0  0
 47157  1  0  0  0  0
 48158  1  0  0  0  0
 49 50  1  0  0  0  0
 49100  1  0  0  0  0
 50 51  1  0  0  0  0
 50159  1  0  0  0  0
 50160  1  0  0  0  0
 51 52  1  0  0  0  0
 51 99  1  0  0  0  0
 51161  1  0  0  0  0
 52 53  1  0  0  0  0
 52162  1  0  0  0  0
 52163  1  0  0  0  0
 53 54  1  0  0  0  0
 53164  1  0  0  0  0
 53165  1  0  0  0  0
 54 55  1  0  0  0  0
 54 98  1  0  0  0  0
 55 56  1  0  0  0  0
 55 97  2  0  0  0  0
 56 57  2  0  0  0  0
 56166  1  0  0  0  0
 57 58  1  0  0  0  0
 57167  1  0  0  0  0
 58 59  1  0  0  0  0
 58 96  2  0  0  0  0
 59 60  2  0  0  0  0
 59 61  1  0  0  0  0
 61 62  1  0  0  0  0
 61168  1  0  0  0  0
 62 63  2  0  0  0  0
 62 64  2  0  0  0  0
 62 65  1  0  0  0  0
 65 66  1  0  0  0  0
 65 95  2  0  0  0  0
 66 67  2  0  0  0  0
 66169  1  0  0  0  0
 67 68  1  0  0  0  0
 67170  1  0  0  0  0
 68 69  1  0  0  0  0
 68 87  2  0  0  0  0
 69 70  1  0  0  0  0
 69171  1  0  0  0  0
 70 71  1  0  0  0  0
 70 79  1  0  0  0  0
 70172  1  0  0  0  0
 71 72  1  0  0  0  0
 71173  1  0  0  0  0
 71174  1  0  0  0  0
 72 73  1  0  0  0  0
 72175  1  0  0  0  0
 72176  1  0  0  0  0
 73 74  1  0  0  0  0
 73 78  1  0  0  0  0
 73177  1  0  0  0  0
 74 75  1  0  0  0  0
 74178  1  0  0  0  0
 74179  1  0  0  0  0
 75 76  1  0  0  0  0
 75180  1  0  0  0  0
 75181  1  0  0  0  0
 76 77  1  0  0  0  0
 77 78  1  0  0  0  0
 77182  1  0  0  0  0
 77183  1  0  0  0  0
 78184  1  0  0  0  0
 78185  1  0  0  0  0
 79 80  1  0  0  0  0
 79186  1  0  0  0  0
 79187  1  0  0  0  0
 80 81  1  0  0  0  0
 81 82  1  0  0  0  0
 81 86  2  0  0  0  0
 82 83  2  0  0  0  0
 82188  1  0  0  0  0
 83 84  1  0  0  0  0
 83189  1  0  0  0  0
 84 85  2  0  0  0  0
 84190  1  0  0  0  0
 85 86  1  0  0  0  0
 85191  1  0  0  0  0
 86192  1  0  0  0  0
 87 88  1  0  0  0  0
 87 95  1  0  0  0  0
 88 89  2  0  0  0  0
 88 90  2  0  0  0  0
 88 91  1  0  0  0  0
 91 92  1  0  0  0  0
 91 93  1  0  0  0  0
 91 94  1  0  0  0  0
 95193  1  0  0  0  0
 96 97  1  0  0  0  0
 96194  1  0  0  0  0
 97195  1  0  0  0  0
 98 99  1  0  0  0  0
 98196  1  0  0  0  0
 98197  1  0  0  0  0
 99198  1  0  0  0  0
 99199  1  0  0  0  0
100200  1  0  0  0  0
100201  1  0  0  0  0
101102  1  0  0  0  0
101103  1  0  0  0  0
101104  1  0  0  0  0
102202  1  0  0  0  0
102203  1  0  0  0  0
102204  1  0  0  0  0
103205  1  0  0  0  0
103206  1  0  0  0  0
103207  1  0  0  0  0
104208  1  0  0  0  0
104209  1  0  0  0  0
104210  1  0  0  0  0
105106  1  0  0  0  0
105211  1  0  0  0  0
106212  1  0  0  0  0
107108  1  0  0  0  0
108109  2  0  0  0  0
108213  1  0  0  0  0
M  CHG  1  51   1
M  CHG  1  73   1
M  END
>  <Compound ID>
2385

>  <Uniprot>
Q07817

>  <Target>
BCL-xL

>  <E3 ligase>
VHL

>  <IC50 (nM, Cellular activities)>
32.1/23.3

>  <Assay (Cellular activities, IC50)>
Inhibit viability of MOLT-4/RS4;11 cells

>  <Article DOI>
10.1021/acs.jmedchem.1c00517

>  <Molecular Weight>
1600.47

>  <Exact Mass>
1598.6252

>  <XLogP3>
13.4

>  <Heavy Atom Count>
109

>  <Ring Count>
10

>  <Hydrogen Bond Acceptor Count>
18

>  <Hydrogen Bond Donor Count>
6

>  <Rotatable Bond Count>
33

>  <Topological Polar Surface Area>
269.09

>  <Molecular Formula>
C80H102ClF3N10O11S4

>  <InChI>
InChI=1S/C80H102ClF3N10O11S4/c1-54(56-20-22-58(23-21-56)73-55(2)86-53-107-73)87-76(99)69-46-64(95)50-94(69)77(100)74(78(3,4)5)89-72(97)19-15-10-8-7-9-14-18-71(96)85-52-79(6)36-34-67(57-24-28-61(81)29-25-57)60(48-79)49-92-38-40-93(41-39-92)63-30-26-59(27-31-63)75(98)90-109(103,104)66-32-33-68(70(47-66)108(101,102)80(82,83)84)88-62(35-37-91-42-44-105-45-43-91)51-106-65-16-12-11-13-17-65/h11-13,16-17,20-33,47,53-54,62,64,69,74,88,95H,7-10,14-15,18-19,34-46,48-52H2,1-6H3,(H,85,96)(H,87,99)(H,89,97)(H,90,98)/t54-,62+,64+,69-,74+,79?/m0/s1

>  <InChI Key>
CWIUDSZQDVZITQ-AAWIYDMSSA-N

>  <DC50 (nM)>
31.6/22.6

>  <Assay (DC50/Dmax)>
Degradation of BCL-xL in MOLT-4/RS4;11 cells after 16 h treatment

>  <Name>
PP5

$$$$
2389
  MOE2018           3D

213222  0  0  1  0  0  0  0  0999 V2000
   16.5440  -30.0300    1.3720 C   0  0  0  0  0  0  0  0  0  0  0  0
   16.8250  -30.6940    0.0450 C   0  0  0  0  0  0  0  0  0  0  0  0
   15.8720  -31.0970   -0.8570 C   0  0  0  0  0  0  0  0  0  0  0  0
   14.4180  -31.0220   -0.7660 C   0  0  0  0  0  0  0  0  0  0  0  0
   13.7420  -31.4530    0.3800 C   0  0  0  0  0  0  0  0  0  0  0  0
   12.3550  -31.3820    0.4600 C   0  0  0  0  0  0  0  0  0  0  0  0
   11.6060  -30.8800   -0.6090 C   0  0  0  0  0  0  0  0  0  0  0  0
   10.0850  -30.8090   -0.5670 C   0  0  2  0  0  0  0  0  0  0  0  0
    9.6450  -29.9940    0.6580 C   0  0  0  0  0  0  0  0  0  0  0  0
    9.6370  -32.1720   -0.3730 N   0  0  0  0  0  0  0  0  0  0  0  0
    8.4140  -32.6010   -0.6930 C   0  0  0  0  0  0  0  0  0  0  0  0
    7.5600  -31.8230   -1.1110 O   0  0  0  0  0  0  0  0  0  0  0  0
    8.1200  -34.1100   -0.4590 C   0  0  2  0  0  0  0  0  0  0  0  0
    8.8230  -34.9610   -1.5240 C   0  0  0  0  0  0  0  0  0  0  0  0
    8.0250  -36.2560   -1.5390 C   0  0  1  0  0  0  0  0  0  0  0  0
    8.4530  -37.0610   -0.4570 O   0  0  0  0  0  0  0  0  0  0  0  0
    6.6000  -35.7420   -1.3320 C   0  0  0  0  0  0  0  0  0  0  0  0
    6.7200  -34.5770   -0.4570 N   0  0  0  0  0  0  0  0  0  0  0  0
    5.6900  -34.1920    0.3370 C   0  0  0  0  0  0  0  0  0  0  0  0
    4.6800  -34.8920    0.3510 O   0  0  0  0  0  0  0  0  0  0  0  0
    5.8200  -32.9490    1.2820 C   0  0  1  0  0  0  0  0  0  0  0  0
    5.0700  -31.7530    0.8430 N   0  0  0  0  0  0  0  0  0  0  0  0
    3.7590  -31.6590    0.6170 C   0  0  0  0  0  0  0  0  0  0  0  0
    2.9590  -32.5310    0.9150 O   0  0  0  0  0  0  0  0  0  0  0  0
    3.2790  -30.3660   -0.0450 C   0  0  0  0  0  0  0  0  0  0  0  0
    1.8020  -30.0400    0.2480 C   0  0  0  0  0  0  0  0  0  0  0  0
    1.3440  -28.7590   -0.4620 C   0  0  0  0  0  0  0  0  0  0  0  0
   -0.0830  -28.3950   -0.0260 C   0  0  0  0  0  0  0  0  0  0  0  0
   -0.5950  -27.1650   -0.7880 C   0  0  0  0  0  0  0  0  0  0  0  0
   -1.9480  -26.7070   -0.2260 C   0  0  0  0  0  0  0  0  0  0  0  0
   -2.4850  -25.5080   -1.0200 C   0  0  0  0  0  0  0  0  0  0  0  0
   -3.7430  -24.9230   -0.3510 C   0  0  0  0  0  0  0  0  0  0  0  0
   -4.3430  -23.7490   -1.1190 C   0  0  0  0  0  0  0  0  0  0  0  0
   -5.5180  -23.7670   -1.4680 O   0  0  0  0  0  0  0  0  0  0  0  0
   -3.5550  -22.6920   -1.3240 N   0  0  0  0  0  0  0  0  0  0  0  0
   -3.9230  -21.5130   -2.1090 C   0  0  0  0  0  0  0  0  0  0  0  0
   -4.4800  -20.3550   -1.2350 C   0  0  1  0  0  0  0  0  0  0  0  0
   -3.4010  -19.9120   -0.2180 C   0  0  0  0  0  0  0  0  0  0  0  0
   -4.8690  -19.2250   -2.2170 C   0  0  0  0  0  0  0  0  0  0  0  0
   -5.3840  -17.9880   -1.4500 C   0  0  0  0  0  0  0  0  0  0  0  0
   -6.4290  -18.4000   -0.4200 C   0  0  0  0  0  0  0  0  0  0  0  0
   -7.2440  -17.3070    0.0970 C   0  0  0  0  0  0  0  0  0  0  0  0
   -7.0990  -16.8760    1.4230 C   0  0  0  0  0  0  0  0  0  0  0  0
   -7.9040  -15.8650    1.9320 C   0  0  0  0  0  0  0  0  0  0  0  0
   -8.8630  -15.2620    1.1170 C   0  0  0  0  0  0  0  0  0  0  0  0
   -9.8800  -14.0130    1.7540 Cl  0  0  0  0  0  0  0  0  0  0  0  0
   -9.0020  -15.6650   -0.2120 C   0  0  0  0  0  0  0  0  0  0  0  0
   -8.1930  -16.6760   -0.7180 C   0  0  0  0  0  0  0  0  0  0  0  0
   -6.5720  -19.6750    0.0180 C   0  0  0  0  0  0  0  0  0  0  0  0
   -7.6140  -20.0520    1.0530 C   0  0  0  0  0  0  0  0  0  0  0  0
   -8.6020  -20.8470    0.3160 N   0  3  0  0  0  0  0  0  0  0  0  0
   -9.3320  -19.9230   -0.6260 C   0  0  0  0  0  0  0  0  0  0  0  0
  -10.4000  -20.7310   -1.4020 C   0  0  0  0  0  0  0  0  0  0  0  0
  -11.3220  -21.2620   -0.3760 N   0  0  0  0  0  0  0  0  0  0  0  0
  -12.6350  -21.5660   -0.7400 C   0  0  0  0  0  0  0  0  0  0  0  0
  -13.6360  -21.4360    0.2260 C   0  0  0  0  0  0  0  0  0  0  0  0
  -14.9560  -21.6990   -0.1060 C   0  0  0  0  0  0  0  0  0  0  0  0
  -15.3070  -22.1090   -1.4070 C   0  0  0  0  0  0  0  0  0  0  0  0
  -16.6980  -22.3730   -1.7900 C   0  0  0  0  0  0  0  0  0  0  0  0
  -17.0800  -22.6290   -2.9200 O   0  0  0  0  0  0  0  0  0  0  0  0
  -17.7090  -22.3480   -0.9160 N   0  0  0  0  0  0  0  0  0  0  0  0
  -17.7650  -23.6700    0.0620 S   0  0  0  0  0  0  0  0  0  0  0  0
  -16.7940  -24.6090   -0.3620 O   0  0  0  0  0  0  0  0  0  0  0  0
  -17.6450  -23.2200    1.3970 O   0  0  0  0  0  0  0  0  0  0  0  0
  -19.4120  -24.3590   -0.2000 C   0  0  0  0  0  0  0  0  0  0  0  0
  -19.6430  -25.2400   -1.2570 C   0  0  0  0  0  0  0  0  0  0  0  0
  -20.9020  -25.7830   -1.4580 C   0  0  0  0  0  0  0  0  0  0  0  0
  -21.9550  -25.4670   -0.5970 C   0  0  0  0  0  0  0  0  0  0  0  0
  -23.1800  -26.0800   -0.9020 N   0  0  0  0  0  0  0  0  0  0  0  0
  -23.5920  -27.3210   -0.2190 C   0  0  2  0  0  0  0  0  0  0  0  0
  -22.5490  -28.4170   -0.5010 C   0  0  0  0  0  0  0  0  0  0  0  0
  -22.9090  -29.6110    0.4140 C   0  0  0  0  0  0  0  0  0  0  0  0
  -21.8060  -30.6200    0.4430 N   0  3  0  0  0  0  0  0  0  0  0  0
  -21.4170  -31.0450   -0.9450 C   0  0  0  0  0  0  0  0  0  0  0  0
  -20.3400  -32.1470   -0.8120 C   0  0  0  0  0  0  0  0  0  0  0  0
  -19.2410  -31.5720   -0.1070 O   0  0  0  0  0  0  0  0  0  0  0  0
  -19.5360  -31.1650    1.2280 C   0  0  0  0  0  0  0  0  0  0  0  0
  -20.5970  -30.0440    1.1320 C   0  0  0  0  0  0  0  0  0  0  0  0
  -24.9840  -27.6660   -0.7850 C   0  0  0  0  0  0  0  0  0  0  0  0
  -26.0960  -26.3660   -0.1420 S   0  0  0  0  0  0  0  0  0  0  0  0
  -27.7150  -26.8080   -0.6350 C   0  0  0  0  0  0  0  0  0  0  0  0
  -27.9640  -27.7130   -1.6770 C   0  0  0  0  0  0  0  0  0  0  0  0
  -29.2700  -28.0360   -2.0240 C   0  0  0  0  0  0  0  0  0  0  0  0
  -30.3400  -27.4620   -1.3430 C   0  0  0  0  0  0  0  0  0  0  0  0
  -30.1000  -26.5560   -0.3140 C   0  0  0  0  0  0  0  0  0  0  0  0
  -28.7960  -26.2290    0.0380 C   0  0  0  0  0  0  0  0  0  0  0  0
  -21.7590  -24.5620    0.4660 C   0  0  0  0  0  0  0  0  0  0  0  0
  -23.0660  -24.0640    1.6170 S   0  0  0  0  0  0  0  0  0  0  0  0
  -22.4620  -23.3100    2.6640 O   0  0  0  0  0  0  0  0  0  0  0  0
  -23.7670  -25.2270    2.0460 O   0  0  0  0  0  0  0  0  0  0  0  0
  -24.1790  -22.9390    0.5680 C   0  0  0  0  0  0  0  0  0  0  0  0
  -24.6390  -23.5210   -0.5640 F   0  0  0  0  0  0  0  0  0  0  0  0
  -23.5540  -21.8190    0.1270 F   0  0  0  0  0  0  0  0  0  0  0  0
  -25.2870  -22.4880    1.1990 F   0  0  0  0  0  0  0  0  0  0  0  0
  -20.4740  -24.0360    0.6500 C   0  0  0  0  0  0  0  0  0  0  0  0
  -14.2830  -22.2450   -2.3610 C   0  0  0  0  0  0  0  0  0  0  0  0
  -12.9610  -21.9760   -2.0380 C   0  0  0  0  0  0  0  0  0  0  0  0
  -10.6870  -22.1960    0.5800 C   0  0  0  0  0  0  0  0  0  0  0  0
   -9.5860  -21.3850    1.3160 C   0  0  0  0  0  0  0  0  0  0  0  0
   -5.7530  -20.8470   -0.5080 C   0  0  0  0  0  0  0  0  0  0  0  0
    5.7480  -33.2330    2.8220 C   0  0  0  0  0  0  0  0  0  0  0  0
    4.3600  -33.6190    3.3690 C   0  0  0  0  0  0  0  0  0  0  0  0
    6.7140  -34.3810    3.1840 C   0  0  0  0  0  0  0  0  0  0  0  0
    6.2190  -31.9940    3.6130 C   0  0  0  0  0  0  0  0  0  0  0  0
   12.2760  -30.4550   -1.7560 C   0  0  0  0  0  0  0  0  0  0  0  0
   13.6630  -30.5250   -1.8340 C   0  0  0  0  0  0  0  0  0  0  0  0
   16.6350  -31.7750   -2.2350 S   0  0  0  0  0  0  0  0  0  0  0  0
   18.1600  -31.4880   -1.4960 C   0  0  0  0  0  0  0  0  0  0  0  0
   18.1110  -30.9260   -0.3240 N   0  0  0  0  0  0  0  0  0  0  0  0
   15.4670  -29.9230    1.5040 H   0  0  0  0  0  0  0  0  0  0  0  0
   17.0120  -29.0460    1.3920 H   0  0  0  0  0  0  0  0  0  0  0  0
   16.9500  -30.6420    2.1780 H   0  0  0  0  0  0  0  0  0  0  0  0
   14.3040  -31.8460    1.2140 H   0  0  0  0  0  0  0  0  0  0  0  0
   11.8520  -31.7170    1.3550 H   0  0  0  0  0  0  0  0  0  0  0  0
    9.6830  -30.3520   -1.4710 H   0  0  0  0  0  0  0  0  0  0  0  0
   10.0470  -30.4510    1.5620 H   0  0  0  0  0  0  0  0  0  0  0  0
    8.5560  -29.9790    0.7120 H   0  0  0  0  0  0  0  0  0  0  0  0
   10.0190  -28.9740    0.5690 H   0  0  0  0  0  0  0  0  0  0  0  0
   10.2860  -32.8350    0.0270 H   0  0  0  0  0  0  0  0  0  0  0  0
    8.4840  -34.2300    0.5610 H   0  0  0  0  0  0  0  0  0  0  0  0
    9.8610  -35.1480   -1.2490 H   0  0  0  0  0  0  0  0  0  0  0  0
    8.7880  -34.4720   -2.4970 H   0  0  0  0  0  0  0  0  0  0  0  0
    8.1280  -36.8660   -2.4360 H   0  0  0  0  0  0  0  0  0  0  0  0
    8.3690  -36.5390    0.3440 H   0  0  0  0  0  0  0  0  0  0  0  0
    5.9850  -36.5090   -0.8610 H   0  0  0  0  0  0  0  0  0  0  0  0
    6.1570  -35.4560   -2.2860 H   0  0  0  0  0  0  0  0  0  0  0  0
    6.8670  -32.6770    1.1470 H   0  0  0  0  0  0  0  0  0  0  0  0
    5.6110  -30.9130    0.6980 H   0  0  0  0  0  0  0  0  0  0  0  0
    3.8930  -29.5430    0.3190 H   0  0  0  0  0  0  0  0  0  0  0  0
    3.4040  -30.4630   -1.1230 H   0  0  0  0  0  0  0  0  0  0  0  0
    1.1840  -30.8710   -0.0920 H   0  0  0  0  0  0  0  0  0  0  0  0
    1.6770  -29.9100    1.3230 H   0  0  0  0  0  0  0  0  0  0  0  0
    2.0190  -27.9430   -0.2040 H   0  0  0  0  0  0  0  0  0  0  0  0
    1.3620  -28.9180   -1.5400 H   0  0  0  0  0  0  0  0  0  0  0  0
   -0.7430  -29.2390   -0.2270 H   0  0  0  0  0  0  0  0  0  0  0  0
   -0.0850  -28.1790    1.0420 H   0  0  0  0  0  0  0  0  0  0  0  0
   -0.7120  -27.4190   -1.8410 H   0  0  0  0  0  0  0  0  0  0  0  0
    0.1270  -26.3550   -0.6880 H   0  0  0  0  0  0  0  0  0  0  0  0
   -1.8230  -26.4190    0.8180 H   0  0  0  0  0  0  0  0  0  0  0  0
   -2.6610  -27.5290   -0.2930 H   0  0  0  0  0  0  0  0  0  0  0  0
   -2.7360  -25.8330   -2.0300 H   0  0  0  0  0  0  0  0  0  0  0  0
   -1.7150  -24.7380   -1.0670 H   0  0  0  0  0  0  0  0  0  0  0  0
   -3.4760  -24.5820    0.6490 H   0  0  0  0  0  0  0  0  0  0  0  0
   -4.4940  -25.7100   -0.2790 H   0  0  0  0  0  0  0  0  0  0  0  0
   -2.6360  -22.7070   -0.9060 H   0  0  0  0  0  0  0  0  0  0  0  0
   -3.0380  -21.1560   -2.6360 H   0  0  0  0  0  0  0  0  0  0  0  0
   -4.6860  -21.8010   -2.8320 H   0  0  0  0  0  0  0  0  0  0  0  0
   -3.7910  -19.1000    0.3950 H   0  0  0  0  0  0  0  0  0  0  0  0
   -2.5160  -19.5700   -0.7540 H   0  0  0  0  0  0  0  0  0  0  0  0
   -3.1360  -20.7550    0.4210 H   0  0  0  0  0  0  0  0  0  0  0  0
   -3.9940  -18.9440   -2.8030 H   0  0  0  0  0  0  0  0  0  0  0  0
   -5.6530  -19.5850   -2.8840 H   0  0  0  0  0  0  0  0  0  0  0  0
   -5.8310  -17.2880   -2.1560 H   0  0  0  0  0  0  0  0  0  0  0  0
   -4.5480  -17.5070   -0.9420 H   0  0  0  0  0  0  0  0  0  0  0  0
   -6.3530  -17.3350    2.0550 H   0  0  0  0  0  0  0  0  0  0  0  0
   -7.7880  -15.5460    2.9570 H   0  0  0  0  0  0  0  0  0  0  0  0
   -9.7370  -15.1920   -0.8460 H   0  0  0  0  0  0  0  0  0  0  0  0
   -8.2970  -16.9780   -1.7500 H   0  0  0  0  0  0  0  0  0  0  0  0
   -8.0760  -19.1600    1.4750 H   0  0  0  0  0  0  0  0  0  0  0  0
   -7.1660  -20.6420    1.8530 H   0  0  0  0  0  0  0  0  0  0  0  0
   -8.1630  -21.5980   -0.1970 H   0  0  0  0  0  0  0  0  0  0  0  0
   -9.8170  -19.1300   -0.0570 H   0  0  0  0  0  0  0  0  0  0  0  0
   -8.6240  -19.4850   -1.3290 H   0  0  0  0  0  0  0  0  0  0  0  0
   -9.9330  -21.5480   -1.9530 H   0  0  0  0  0  0  0  0  0  0  0  0
  -10.9360  -20.0840   -2.0960 H   0  0  0  0  0  0  0  0  0  0  0  0
  -13.3820  -21.1310    1.2300 H   0  0  0  0  0  0  0  0  0  0  0  0
  -15.7260  -21.5880    0.6430 H   0  0  0  0  0  0  0  0  0  0  0  0
  -18.3750  -21.5900   -0.8610 H   0  0  0  0  0  0  0  0  0  0  0  0
  -18.8340  -25.5010   -1.9240 H   0  0  0  0  0  0  0  0  0  0  0  0
  -21.0700  -26.4550   -2.2860 H   0  0  0  0  0  0  0  0  0  0  0  0
  -23.7860  -25.6670   -1.5970 H   0  0  0  0  0  0  0  0  0  0  0  0
  -23.6500  -27.2200    0.8650 H   0  0  0  0  0  0  0  0  0  0  0  0
  -22.5930  -28.7180   -1.5480 H   0  0  0  0  0  0  0  0  0  0  0  0
  -21.5480  -28.0530   -0.2690 H   0  0  0  0  0  0  0  0  0  0  0  0
  -23.8160  -30.0860    0.0390 H   0  0  0  0  0  0  0  0  0  0  0  0
  -23.0820  -29.2440    1.4260 H   0  0  0  0  0  0  0  0  0  0  0  0
  -22.1430  -31.4270    0.9490 H   0  0  0  0  0  0  0  0  0  0  0  0
  -22.2870  -31.4370   -1.4710 H   0  0  0  0  0  0  0  0  0  0  0  0
  -21.0130  -30.1950   -1.4950 H   0  0  0  0  0  0  0  0  0  0  0  0
  -20.0190  -32.4780   -1.8000 H   0  0  0  0  0  0  0  0  0  0  0  0
  -20.7390  -32.9950   -0.2560 H   0  0  0  0  0  0  0  0  0  0  0  0
  -19.9300  -32.0060    1.7980 H   0  0  0  0  0  0  0  0  0  0  0  0
  -18.6350  -30.7880    1.7130 H   0  0  0  0  0  0  0  0  0  0  0  0
  -20.2030  -29.2080    0.5540 H   0  0  0  0  0  0  0  0  0  0  0  0
  -20.8670  -29.7010    2.1310 H   0  0  0  0  0  0  0  0  0  0  0  0
  -25.3050  -28.6490   -0.4400 H   0  0  0  0  0  0  0  0  0  0  0  0
  -24.9680  -27.6510   -1.8750 H   0  0  0  0  0  0  0  0  0  0  0  0
  -27.1390  -28.1600   -2.2110 H   0  0  0  0  0  0  0  0  0  0  0  0
  -29.4560  -28.7350   -2.8260 H   0  0  0  0  0  0  0  0  0  0  0  0
  -31.3540  -27.7190   -1.6120 H   0  0  0  0  0  0  0  0  0  0  0  0
  -30.9290  -26.1060    0.2120 H   0  0  0  0  0  0  0  0  0  0  0  0
  -28.6160  -25.5240    0.8360 H   0  0  0  0  0  0  0  0  0  0  0  0
  -20.2980  -23.3600    1.4740 H   0  0  0  0  0  0  0  0  0  0  0  0
  -14.5300  -22.5640   -3.3630 H   0  0  0  0  0  0  0  0  0  0  0  0
  -12.1870  -22.0820   -2.7840 H   0  0  0  0  0  0  0  0  0  0  0  0
  -11.4240  -22.5650    1.2930 H   0  0  0  0  0  0  0  0  0  0  0  0
  -10.2440  -23.0370    0.0480 H   0  0  0  0  0  0  0  0  0  0  0  0
   -9.0680  -22.0340    2.0210 H   0  0  0  0  0  0  0  0  0  0  0  0
  -10.0450  -20.5560    1.8550 H   0  0  0  0  0  0  0  0  0  0  0  0
   -5.4620  -21.4820    0.3290 H   0  0  0  0  0  0  0  0  0  0  0  0
   -6.3620  -21.4220   -1.2060 H   0  0  0  0  0  0  0  0  0  0  0  0
    4.4280  -33.7920    4.4430 H   0  0  0  0  0  0  0  0  0  0  0  0
    4.0150  -34.5280    2.8760 H   0  0  0  0  0  0  0  0  0  0  0  0
    3.6550  -32.8100    3.1750 H   0  0  0  0  0  0  0  0  0  0  0  0
    6.6610  -34.5760    4.2550 H   0  0  0  0  0  0  0  0  0  0  0  0
    7.7320  -34.0980    2.9160 H   0  0  0  0  0  0  0  0  0  0  0  0
    6.4310  -35.2800    2.6370 H   0  0  0  0  0  0  0  0  0  0  0  0
    6.1650  -32.2030    4.6810 H   0  0  0  0  0  0  0  0  0  0  0  0
    5.5770  -31.1460    3.3760 H   0  0  0  0  0  0  0  0  0  0  0  0
    7.2480  -31.7590    3.3410 H   0  0  0  0  0  0  0  0  0  0  0  0
   11.7120  -30.0680   -2.5920 H   0  0  0  0  0  0  0  0  0  0  0  0
   14.1640  -30.1910   -2.7310 H   0  0  0  0  0  0  0  0  0  0  0  0
   19.0920  -31.7550   -1.9710 H   0  0  0  0  0  0  0  0  0  0  0  0
  1  2  1  0  0  0  0
  1110  1  0  0  0  0
  1111  1  0  0  0  0
  1112  1  0  0  0  0
  2  3  2  0  0  0  0
  2109  1  0  0  0  0
  3  4  1  0  0  0  0
  3107  1  0  0  0  0
  4  5  1  0  0  0  0
  4106  2  0  0  0  0
  5  6  2  0  0  0  0
  5113  1  0  0  0  0
  6  7  1  0  0  0  0
  6114  1  0  0  0  0
  7  8  1  0  0  0  0
  7105  2  0  0  0  0
  8  9  1  0  0  0  0
  8 10  1  0  0  0  0
  8115  1  0  0  0  0
  9116  1  0  0  0  0
  9117  1  0  0  0  0
  9118  1  0  0  0  0
 10 11  1  0  0  0  0
 10119  1  0  0  0  0
 11 12  2  0  0  0  0
 11 13  1  0  0  0  0
 13 14  1  0  0  0  0
 13 18  1  0  0  0  0
 13120  1  0  0  0  0
 14 15  1  0  0  0  0
 14121  1  0  0  0  0
 14122  1  0  0  0  0
 15 16  1  0  0  0  0
 15 17  1  0  0  0  0
 15123  1  0  0  0  0
 16124  1  0  0  0  0
 17 18  1  0  0  0  0
 17125  1  0  0  0  0
 17126  1  0  0  0  0
 18 19  1  0  0  0  0
 19 20  2  0  0  0  0
 19 21  1  0  0  0  0
 21 22  1  0  0  0  0
 21101  1  0  0  0  0
 21127  1  0  0  0  0
 22 23  1  0  0  0  0
 22128  1  0  0  0  0
 23 24  2  0  0  0  0
 23 25  1  0  0  0  0
 25 26  1  0  0  0  0
 25129  1  0  0  0  0
 25130  1  0  0  0  0
 26 27  1  0  0  0  0
 26131  1  0  0  0  0
 26132  1  0  0  0  0
 27 28  1  0  0  0  0
 27133  1  0  0  0  0
 27134  1  0  0  0  0
 28 29  1  0  0  0  0
 28135  1  0  0  0  0
 28136  1  0  0  0  0
 29 30  1  0  0  0  0
 29137  1  0  0  0  0
 29138  1  0  0  0  0
 30 31  1  0  0  0  0
 30139  1  0  0  0  0
 30140  1  0  0  0  0
 31 32  1  0  0  0  0
 31141  1  0  0  0  0
 31142  1  0  0  0  0
 32 33  1  0  0  0  0
 32143  1  0  0  0  0
 32144  1  0  0  0  0
 33 34  2  0  0  0  0
 33 35  1  0  0  0  0
 35 36  1  0  0  0  0
 35145  1  0  0  0  0
 36 37  1  0  0  0  0
 36146  1  0  0  0  0
 36147  1  0  0  0  0
 37 38  1  0  0  0  0
 37 39  1  0  0  0  0
 37100  1  0  0  0  0
 38148  1  0  0  0  0
 38149  1  0  0  0  0
 38150  1  0  0  0  0
 39 40  1  0  0  0  0
 39151  1  0  0  0  0
 39152  1  0  0  0  0
 40 41  1  0  0  0  0
 40153  1  0  0  0  0
 40154  1  0  0  0  0
 41 42  1  0  0  0  0
 41 49  2  0  0  0  0
 42 43  1  0  0  0  0
 42 48  2  0  0  0  0
 43 44  2  0  0  0  0
 43155  1  0  0  0  0
 44 45  1  0  0  0  0
 44156  1  0  0  0  0
 45 46  1  0  0  0  0
 45 47  2  0  0  0  0
 47 48  1  0  0  0  0
 47157  1  0  0  0  0
 48158  1  0  0  0  0
 49 50  1  0  0  0  0
 49100  1  0  0  0  0
 50 51  1  0  0  0  0
 50159  1  0  0  0  0
 50160  1  0  0  0  0
 51 52  1  0  0  0  0
 51 99  1  0  0  0  0
 51161  1  0  0  0  0
 52 53  1  0  0  0  0
 52162  1  0  0  0  0
 52163  1  0  0  0  0
 53 54  1  0  0  0  0
 53164  1  0  0  0  0
 53165  1  0  0  0  0
 54 55  1  0  0  0  0
 54 98  1  0  0  0  0
 55 56  1  0  0  0  0
 55 97  2  0  0  0  0
 56 57  2  0  0  0  0
 56166  1  0  0  0  0
 57 58  1  0  0  0  0
 57167  1  0  0  0  0
 58 59  1  0  0  0  0
 58 96  2  0  0  0  0
 59 60  2  0  0  0  0
 59 61  1  0  0  0  0
 61 62  1  0  0  0  0
 61168  1  0  0  0  0
 62 63  2  0  0  0  0
 62 64  2  0  0  0  0
 62 65  1  0  0  0  0
 65 66  1  0  0  0  0
 65 95  2  0  0  0  0
 66 67  2  0  0  0  0
 66169  1  0  0  0  0
 67 68  1  0  0  0  0
 67170  1  0  0  0  0
 68 69  1  0  0  0  0
 68 87  2  0  0  0  0
 69 70  1  0  0  0  0
 69171  1  0  0  0  0
 70 71  1  0  0  0  0
 70 79  1  0  0  0  0
 70172  1  0  0  0  0
 71 72  1  0  0  0  0
 71173  1  0  0  0  0
 71174  1  0  0  0  0
 72 73  1  0  0  0  0
 72175  1  0  0  0  0
 72176  1  0  0  0  0
 73 74  1  0  0  0  0
 73 78  1  0  0  0  0
 73177  1  0  0  0  0
 74 75  1  0  0  0  0
 74178  1  0  0  0  0
 74179  1  0  0  0  0
 75 76  1  0  0  0  0
 75180  1  0  0  0  0
 75181  1  0  0  0  0
 76 77  1  0  0  0  0
 77 78  1  0  0  0  0
 77182  1  0  0  0  0
 77183  1  0  0  0  0
 78184  1  0  0  0  0
 78185  1  0  0  0  0
 79 80  1  0  0  0  0
 79186  1  0  0  0  0
 79187  1  0  0  0  0
 80 81  1  0  0  0  0
 81 82  1  0  0  0  0
 81 86  2  0  0  0  0
 82 83  2  0  0  0  0
 82188  1  0  0  0  0
 83 84  1  0  0  0  0
 83189  1  0  0  0  0
 84 85  2  0  0  0  0
 84190  1  0  0  0  0
 85 86  1  0  0  0  0
 85191  1  0  0  0  0
 86192  1  0  0  0  0
 87 88  1  0  0  0  0
 87 95  1  0  0  0  0
 88 89  2  0  0  0  0
 88 90  2  0  0  0  0
 88 91  1  0  0  0  0
 91 92  1  0  0  0  0
 91 93  1  0  0  0  0
 91 94  1  0  0  0  0
 95193  1  0  0  0  0
 96 97  1  0  0  0  0
 96194  1  0  0  0  0
 97195  1  0  0  0  0
 98 99  1  0  0  0  0
 98196  1  0  0  0  0
 98197  1  0  0  0  0
 99198  1  0  0  0  0
 99199  1  0  0  0  0
100200  1  0  0  0  0
100201  1  0  0  0  0
101102  1  0  0  0  0
101103  1  0  0  0  0
101104  1  0  0  0  0
102202  1  0  0  0  0
102203  1  0  0  0  0
102204  1  0  0  0  0
103205  1  0  0  0  0
103206  1  0  0  0  0
103207  1  0  0  0  0
104208  1  0  0  0  0
104209  1  0  0  0  0
104210  1  0  0  0  0
105106  1  0  0  0  0
105211  1  0  0  0  0
106212  1  0  0  0  0
107108  1  0  0  0  0
108109  2  0  0  0  0
108213  1  0  0  0  0
M  CHG  1  51   1
M  CHG  1  73   1
M  END
>  <Compound ID>
2389

>  <Uniprot>
Q07817

>  <Target>
BCL-xL

>  <E3 ligase>
VHL

>  <IC50 (nM, Cellular activities)>
170.4/418.3

>  <Assay (Cellular activities, IC50)>
Inhibit viability of MOLT-4/RS4;11 cells

>  <Article DOI>
10.1021/acs.jmedchem.1c00517

>  <Molecular Weight>
1600.47

>  <Exact Mass>
1598.6252

>  <XLogP3>
13.4

>  <Heavy Atom Count>
109

>  <Ring Count>
10

>  <Hydrogen Bond Acceptor Count>
18

>  <Hydrogen Bond Donor Count>
6

>  <Rotatable Bond Count>
33

>  <Topological Polar Surface Area>
269.09

>  <Molecular Formula>
C80H102ClF3N10O11S4

>  <InChI>
InChI=1S/C80H102ClF3N10O11S4/c1-54(56-20-22-58(23-21-56)73-55(2)86-53-107-73)87-76(99)69-46-64(95)50-94(69)77(100)74(78(3,4)5)89-72(97)19-15-10-8-7-9-14-18-71(96)85-52-79(6)36-34-67(57-24-28-61(81)29-25-57)60(48-79)49-92-38-40-93(41-39-92)63-30-26-59(27-31-63)75(98)90-109(103,104)66-32-33-68(70(47-66)108(101,102)80(82,83)84)88-62(35-37-91-42-44-105-45-43-91)51-106-65-16-12-11-13-17-65/h11-13,16-17,20-33,47,53-54,62,64,69,74,88,95H,7-10,14-15,18-19,34-46,48-52H2,1-6H3,(H,85,96)(H,87,99)(H,89,97)(H,90,98)/t54-,62+,64+,69-,74+,79-/m0/s1

>  <InChI Key>
CWIUDSZQDVZITQ-OCIVTJSKSA-N

>  <DC50 (nM)>
127.4/75.2

>  <Assay (DC50/Dmax)>
Degradation of BCL-xL in MOLT-4/RS4;11 cells after 16 h treatment

>  <Name>
PZ703a

>  <Kd (nM, Protac to Target)>
2.75

>  <Assay (Protac to Target, Kd)>
Kd was assessed by the AlphaScreen displacement binding assay

>  <Kd (nM, Ternary complex)>
0.63999999

>  <Assay (Ternary complex, Kd)>
Kd between VHL and the complex of protac and BCL-xL was assessed by the AlphaScreen displacement binding assay

$$$$
2390
  MOE2018           3D

213222  0  0  1  0  0  0  0  0999 V2000
   14.6540  -26.8080    2.1520 C   0  0  0  0  0  0  0  0  0  0  0  0
   14.8490  -26.9160    0.6580 C   0  0  0  0  0  0  0  0  0  0  0  0
   13.8990  -27.3430   -0.2360 C   0  0  0  0  0  0  0  0  0  0  0  0
   12.5360  -27.8030    0.0080 C   0  0  0  0  0  0  0  0  0  0  0  0
   12.2620  -28.7620    0.9890 C   0  0  0  0  0  0  0  0  0  0  0  0
   10.9610  -29.1980    1.2150 C   0  0  0  0  0  0  0  0  0  0  0  0
    9.8990  -28.6880    0.4620 C   0  0  0  0  0  0  0  0  0  0  0  0
    8.4640  -29.1540    0.6690 C   0  0  2  0  0  0  0  0  0  0  0  0
    8.0650  -28.9500    2.1370 C   0  0  0  0  0  0  0  0  0  0  0  0
    8.4690  -30.5780    0.4080 N   0  0  0  0  0  0  0  0  0  0  0  0
    7.3790  -31.2580    0.0440 C   0  0  0  0  0  0  0  0  0  0  0  0
    6.2860  -30.6990   -0.0310 O   0  0  0  0  0  0  0  0  0  0  0  0
    7.5620  -32.7700   -0.2590 C   0  0  2  0  0  0  0  0  0  0  0  0
    8.2970  -33.0450   -1.5760 C   0  0  0  0  0  0  0  0  0  0  0  0
    7.8490  -34.4620   -1.9210 C   0  0  1  0  0  0  0  0  0  0  0  0
    8.5450  -35.3900   -1.1120 O   0  0  0  0  0  0  0  0  0  0  0  0
    6.3790  -34.4100   -1.5140 C   0  0  0  0  0  0  0  0  0  0  0  0
    6.3460  -33.5910   -0.3090 N   0  0  0  0  0  0  0  0  0  0  0  0
    5.9350  -34.1380    0.8440 C   0  0  0  0  0  0  0  0  0  0  0  0
    6.4260  -35.2160    1.1810 O   0  0  0  0  0  0  0  0  0  0  0  0
    4.9750  -33.3040    1.7540 C   0  0  1  0  0  0  0  0  0  0  0  0
    4.0900  -32.3960    0.9960 N   0  0  0  0  0  0  0  0  0  0  0  0
    3.3410  -32.7410   -0.0500 C   0  0  0  0  0  0  0  0  0  0  0  0
    3.2040  -33.8950   -0.4330 O   0  0  0  0  0  0  0  0  0  0  0  0
    2.6200  -31.6090   -0.7690 C   0  0  0  0  0  0  0  0  0  0  0  0
    1.3330  -31.1960   -0.0370 C   0  0  0  0  0  0  0  0  0  0  0  0
    0.6070  -30.0630   -0.7750 C   0  0  0  0  0  0  0  0  0  0  0  0
   -0.7010  -29.7140   -0.0530 C   0  0  0  0  0  0  0  0  0  0  0  0
   -1.4400  -28.5770   -0.7700 C   0  0  0  0  0  0  0  0  0  0  0  0
   -2.7610  -28.2650   -0.0540 C   0  0  0  0  0  0  0  0  0  0  0  0
   -3.4970  -27.1090   -0.7450 C   0  0  0  0  0  0  0  0  0  0  0  0
   -4.8210  -26.7950   -0.0260 C   0  0  0  0  0  0  0  0  0  0  0  0
   -5.5620  -25.6180   -0.6480 C   0  0  0  0  0  0  0  0  0  0  0  0
   -6.5970  -25.7880   -1.2780 O   0  0  0  0  0  0  0  0  0  0  0  0
   -5.0320  -24.4070   -0.4780 N   0  0  0  0  0  0  0  0  0  0  0  0
   -5.5610  -23.2120   -1.1230 C   0  0  0  0  0  0  0  0  0  0  0  0
   -4.4340  -22.2950   -1.6670 C   0  0  2  0  0  0  0  0  0  0  0  0
   -3.6160  -23.0710   -2.7210 C   0  0  0  0  0  0  0  0  0  0  0  0
   -3.4500  -21.7780   -0.5950 C   0  0  0  0  0  0  0  0  0  0  0  0
   -4.2260  -21.0770    0.5410 C   0  0  0  0  0  0  0  0  0  0  0  0
   -5.2790  -20.1270   -0.0250 C   0  0  0  0  0  0  0  0  0  0  0  0
   -5.8320  -19.1960    0.9540 C   0  0  0  0  0  0  0  0  0  0  0  0
   -6.5500  -19.6680    2.0610 C   0  0  0  0  0  0  0  0  0  0  0  0
   -7.1160  -18.7810    2.9700 C   0  0  0  0  0  0  0  0  0  0  0  0
   -6.9580  -17.4060    2.7900 C   0  0  0  0  0  0  0  0  0  0  0  0
   -7.6810  -16.2990    3.9080 Cl  0  0  0  0  0  0  0  0  0  0  0  0
   -6.2170  -16.9240    1.7100 C   0  0  0  0  0  0  0  0  0  0  0  0
   -5.6540  -17.8140    0.8050 C   0  0  0  0  0  0  0  0  0  0  0  0
   -5.6890  -20.1560   -1.3190 C   0  0  0  0  0  0  0  0  0  0  0  0
   -6.7660  -19.2260   -1.8450 C   0  0  0  0  0  0  0  0  0  0  0  0
   -7.9550  -20.0780   -1.9540 N   0  3  0  0  0  0  0  0  0  0  0  0
   -8.9690  -19.3410   -2.7800 C   0  0  0  0  0  0  0  0  0  0  0  0
  -10.2510  -20.2040   -2.9100 C   0  0  0  0  0  0  0  0  0  0  0  0
  -10.7470  -20.4180   -1.5320 N   0  0  0  0  0  0  0  0  0  0  0  0
  -12.1130  -20.6520   -1.3120 C   0  0  0  0  0  0  0  0  0  0  0  0
  -12.6460  -20.3830   -0.0470 C   0  0  0  0  0  0  0  0  0  0  0  0
  -13.9970  -20.5850    0.1960 C   0  0  0  0  0  0  0  0  0  0  0  0
  -14.8510  -21.0540   -0.8200 C   0  0  0  0  0  0  0  0  0  0  0  0
  -16.2860  -21.2480   -0.5920 C   0  0  0  0  0  0  0  0  0  0  0  0
  -17.0950  -21.5780   -1.4440 O   0  0  0  0  0  0  0  0  0  0  0  0
  -16.8460  -21.0760    0.6110 N   0  0  0  0  0  0  0  0  0  0  0  0
  -16.8830  -22.4790    1.4730 S   0  0  0  0  0  0  0  0  0  0  0  0
  -15.8040  -23.2980    1.0630 O   0  0  0  0  0  0  0  0  0  0  0  0
  -16.9150  -22.1340    2.8430 O   0  0  0  0  0  0  0  0  0  0  0  0
  -18.4390  -23.2840    1.0170 C   0  0  0  0  0  0  0  0  0  0  0  0
  -18.5260  -24.0400   -0.1520 C   0  0  0  0  0  0  0  0  0  0  0  0
  -19.7110  -24.6650   -0.5030 C   0  0  0  0  0  0  0  0  0  0  0  0
  -20.8340  -24.5660    0.3200 C   0  0  0  0  0  0  0  0  0  0  0  0
  -21.9810  -25.2270   -0.1450 N   0  0  0  0  0  0  0  0  0  0  0  0
  -22.2970  -26.6000    0.2900 C   0  0  2  0  0  0  0  0  0  0  0  0
  -21.1280  -27.5240   -0.0940 C   0  0  0  0  0  0  0  0  0  0  0  0
  -21.4260  -28.9050    0.5320 C   0  0  0  0  0  0  0  0  0  0  0  0
  -20.2350  -29.8050    0.4470 N   0  3  0  0  0  0  0  0  0  0  0  0
  -19.7290  -29.9100   -0.9650 C   0  0  0  0  0  0  0  0  0  0  0  0
  -18.5600  -30.9230   -0.9690 C   0  0  0  0  0  0  0  0  0  0  0  0
  -17.5640  -30.4140   -0.0860 O   0  0  0  0  0  0  0  0  0  0  0  0
  -17.9710  -30.3070    1.2770 C   0  0  0  0  0  0  0  0  0  0  0  0
  -19.1260  -29.2810    1.3210 C   0  0  0  0  0  0  0  0  0  0  0  0
  -23.6070  -26.9680   -0.4320 C   0  0  0  0  0  0  0  0  0  0  0  0
  -24.8930  -25.9200    0.3360 S   0  0  0  0  0  0  0  0  0  0  0  0
  -26.4100  -26.3550   -0.4200 C   0  0  0  0  0  0  0  0  0  0  0  0
  -26.4730  -27.0340   -1.6460 C   0  0  0  0  0  0  0  0  0  0  0  0
  -27.7060  -27.3610   -2.2000 C   0  0  0  0  0  0  0  0  0  0  0  0
  -28.8840  -27.0120   -1.5460 C   0  0  0  0  0  0  0  0  0  0  0  0
  -28.8280  -26.3320   -0.3330 C   0  0  0  0  0  0  0  0  0  0  0  0
  -27.5990  -26.0030    0.2270 C   0  0  0  0  0  0  0  0  0  0  0  0
  -20.7810  -23.8070    1.5060 C   0  0  0  0  0  0  0  0  0  0  0  0
  -22.1850  -23.6210    2.6340 S   0  0  0  0  0  0  0  0  0  0  0  0
  -21.7110  -22.9940    3.8220 O   0  0  0  0  0  0  0  0  0  0  0  0
  -22.7900  -24.8970    2.8290 O   0  0  0  0  0  0  0  0  0  0  0  0
  -23.3480  -22.4480    1.7010 C   0  0  0  0  0  0  0  0  0  0  0  0
  -23.7170  -22.8960    0.4780 F   0  0  0  0  0  0  0  0  0  0  0  0
  -22.8020  -21.2310    1.4520 F   0  0  0  0  0  0  0  0  0  0  0  0
  -24.5120  -22.1790    2.3360 F   0  0  0  0  0  0  0  0  0  0  0  0
  -19.5690  -23.1860    1.8360 C   0  0  0  0  0  0  0  0  0  0  0  0
  -14.2990  -21.3240   -2.0830 C   0  0  0  0  0  0  0  0  0  0  0  0
  -12.9470  -21.1280   -2.3320 C   0  0  0  0  0  0  0  0  0  0  0  0
   -9.7970  -21.1430   -0.6510 C   0  0  0  0  0  0  0  0  0  0  0  0
   -8.5210  -20.2670   -0.5700 C   0  0  0  0  0  0  0  0  0  0  0  0
   -5.0640  -21.0710   -2.3690 C   0  0  0  0  0  0  0  0  0  0  0  0
    4.2230  -34.0520    2.9140 C   0  0  0  0  0  0  0  0  0  0  0  0
    3.3710  -35.2450    2.4410 C   0  0  0  0  0  0  0  0  0  0  0  0
    5.2150  -34.5690    3.9790 C   0  0  0  0  0  0  0  0  0  0  0  0
    3.2790  -33.0910    3.6750 C   0  0  0  0  0  0  0  0  0  0  0  0
   10.1700  -27.7370   -0.5220 C   0  0  0  0  0  0  0  0  0  0  0  0
   11.4700  -27.3010   -0.7470 C   0  0  0  0  0  0  0  0  0  0  0  0
   14.5380  -27.2830   -1.8260 S   0  0  0  0  0  0  0  0  0  0  0  0
   16.0250  -26.7170   -1.1760 C   0  0  0  0  0  0  0  0  0  0  0  0
   16.0460  -26.5730    0.1180 N   0  0  0  0  0  0  0  0  0  0  0  0
   13.6420  -27.1210    2.4100 H   0  0  0  0  0  0  0  0  0  0  0  0
   14.8050  -25.7750    2.4640 H   0  0  0  0  0  0  0  0  0  0  0  0
   15.3740  -27.4500    2.6600 H   0  0  0  0  0  0  0  0  0  0  0  0
   13.0710  -29.1690    1.5780 H   0  0  0  0  0  0  0  0  0  0  0  0
   10.7690  -29.9370    1.9790 H   0  0  0  0  0  0  0  0  0  0  0  0
    7.7750  -28.6070    0.0260 H   0  0  0  0  0  0  0  0  0  0  0  0
    8.7540  -29.4970    2.7800 H   0  0  0  0  0  0  0  0  0  0  0  0
    7.0510  -29.3190    2.2930 H   0  0  0  0  0  0  0  0  0  0  0  0
    8.1060  -27.8880    2.3810 H   0  0  0  0  0  0  0  0  0  0  0  0
    9.3390  -31.0810    0.5060 H   0  0  0  0  0  0  0  0  0  0  0  0
    8.1450  -33.0640    0.6140 H   0  0  0  0  0  0  0  0  0  0  0  0
    9.3770  -32.9960   -1.4410 H   0  0  0  0  0  0  0  0  0  0  0  0
    7.9960  -32.3380   -2.3490 H   0  0  0  0  0  0  0  0  0  0  0  0
    8.0210  -34.7600   -2.9550 H   0  0  0  0  0  0  0  0  0  0  0  0
    8.4030  -35.1410   -0.1960 H   0  0  0  0  0  0  0  0  0  0  0  0
    6.0040  -35.4120   -1.3060 H   0  0  0  0  0  0  0  0  0  0  0  0
    5.7800  -33.9550   -2.3020 H   0  0  0  0  0  0  0  0  0  0  0  0
    5.6910  -32.6950    2.3050 H   0  0  0  0  0  0  0  0  0  0  0  0
    4.0490  -31.4320    1.2960 H   0  0  0  0  0  0  0  0  0  0  0  0
    3.2850  -30.7470   -0.8270 H   0  0  0  0  0  0  0  0  0  0  0  0
    2.3630  -31.9380   -1.7760 H   0  0  0  0  0  0  0  0  0  0  0  0
    0.6700  -32.0590    0.0280 H   0  0  0  0  0  0  0  0  0  0  0  0
    1.5890  -30.8580    0.9670 H   0  0  0  0  0  0  0  0  0  0  0  0
    1.2490  -29.1820   -0.8030 H   0  0  0  0  0  0  0  0  0  0  0  0
    0.3830  -30.3820   -1.7930 H   0  0  0  0  0  0  0  0  0  0  0  0
   -1.3410  -30.5960   -0.0300 H   0  0  0  0  0  0  0  0  0  0  0  0
   -0.4730  -29.4030    0.9670 H   0  0  0  0  0  0  0  0  0  0  0  0
   -1.6500  -28.8760   -1.7970 H   0  0  0  0  0  0  0  0  0  0  0  0
   -0.8130  -27.6860   -0.7720 H   0  0  0  0  0  0  0  0  0  0  0  0
   -2.5510  -27.9880    0.9790 H   0  0  0  0  0  0  0  0  0  0  0  0
   -3.3940  -29.1520   -0.0700 H   0  0  0  0  0  0  0  0  0  0  0  0
   -3.7080  -27.3870   -1.7780 H   0  0  0  0  0  0  0  0  0  0  0  0
   -2.8630  -26.2220   -0.7300 H   0  0  0  0  0  0  0  0  0  0  0  0
   -4.6050  -26.5600    1.0160 H   0  0  0  0  0  0  0  0  0  0  0  0
   -5.4620  -27.6760   -0.0740 H   0  0  0  0  0  0  0  0  0  0  0  0
   -4.2270  -24.3130    0.1250 H   0  0  0  0  0  0  0  0  0  0  0  0
   -6.2000  -23.5140   -1.9530 H   0  0  0  0  0  0  0  0  0  0  0  0
   -6.1500  -22.6520   -0.3970 H   0  0  0  0  0  0  0  0  0  0  0  0
   -2.8220  -22.4320   -3.1070 H   0  0  0  0  0  0  0  0  0  0  0  0
   -4.2700  -23.3720   -3.5390 H   0  0  0  0  0  0  0  0  0  0  0  0
   -3.1780  -23.9570   -2.2610 H   0  0  0  0  0  0  0  0  0  0  0  0
   -2.8900  -22.6180   -0.1840 H   0  0  0  0  0  0  0  0  0  0  0  0
   -2.7590  -21.0690   -1.0510 H   0  0  0  0  0  0  0  0  0  0  0  0
   -3.5260  -20.5100    1.1540 H   0  0  0  0  0  0  0  0  0  0  0  0
   -4.7190  -21.8310    1.1550 H   0  0  0  0  0  0  0  0  0  0  0  0
   -6.6650  -20.7320    2.2100 H   0  0  0  0  0  0  0  0  0  0  0  0
   -7.6770  -19.1550    3.8140 H   0  0  0  0  0  0  0  0  0  0  0  0
   -6.0820  -15.8610    1.5780 H   0  0  0  0  0  0  0  0  0  0  0  0
   -5.0720  -17.4370   -0.0230 H   0  0  0  0  0  0  0  0  0  0  0  0
   -6.4880  -18.8240   -2.8190 H   0  0  0  0  0  0  0  0  0  0  0  0
   -6.9410  -18.4050   -1.1500 H   0  0  0  0  0  0  0  0  0  0  0  0
   -7.7290  -20.9700   -2.3710 H   0  0  0  0  0  0  0  0  0  0  0  0
   -9.2140  -18.3950   -2.2960 H   0  0  0  0  0  0  0  0  0  0  0  0
   -8.5590  -19.1470   -3.7710 H   0  0  0  0  0  0  0  0  0  0  0  0
  -10.0170  -21.1590   -3.3800 H   0  0  0  0  0  0  0  0  0  0  0  0
  -11.0000  -19.6810   -3.5040 H   0  0  0  0  0  0  0  0  0  0  0  0
  -12.0050  -20.0180    0.7420 H   0  0  0  0  0  0  0  0  0  0  0  0
  -14.3990  -20.3800    1.1770 H   0  0  0  0  0  0  0  0  0  0  0  0
  -17.2020  -20.1940    0.9490 H   0  0  0  0  0  0  0  0  0  0  0  0
  -17.6600  -24.1390   -0.7900 H   0  0  0  0  0  0  0  0  0  0  0  0
  -19.7670  -25.2330   -1.4200 H   0  0  0  0  0  0  0  0  0  0  0  0
  -22.6000  -24.7550   -0.7880 H   0  0  0  0  0  0  0  0  0  0  0  0
  -22.4280  -26.6980    1.3680 H   0  0  0  0  0  0  0  0  0  0  0  0
  -21.0590  -27.6110   -1.1780 H   0  0  0  0  0  0  0  0  0  0  0  0
  -20.1920  -27.1280    0.2990 H   0  0  0  0  0  0  0  0  0  0  0  0
  -22.2580  -29.3650   -0.0010 H   0  0  0  0  0  0  0  0  0  0  0  0
  -21.6960  -28.7700    1.5790 H   0  0  0  0  0  0  0  0  0  0  0  0
  -20.5230  -30.7210    0.7610 H   0  0  0  0  0  0  0  0  0  0  0  0
  -20.5260  -30.2600   -1.6200 H   0  0  0  0  0  0  0  0  0  0  0  0
  -19.3780  -28.9360   -1.3070 H   0  0  0  0  0  0  0  0  0  0  0  0
  -18.1530  -31.0210   -1.9750 H   0  0  0  0  0  0  0  0  0  0  0  0
  -18.9070  -31.8960   -0.6210 H   0  0  0  0  0  0  0  0  0  0  0  0
  -18.3150  -31.2750    1.6430 H   0  0  0  0  0  0  0  0  0  0  0  0
  -17.1390  -29.9620    1.8910 H   0  0  0  0  0  0  0  0  0  0  0  0
  -18.7810  -28.3170    0.9460 H   0  0  0  0  0  0  0  0  0  0  0  0
  -19.4820  -29.1660    2.3450 H   0  0  0  0  0  0  0  0  0  0  0  0
  -23.8390  -28.0230   -0.2880 H   0  0  0  0  0  0  0  0  0  0  0  0
  -23.5280  -26.7550   -1.4980 H   0  0  0  0  0  0  0  0  0  0  0  0
  -25.5620  -27.3030   -2.1610 H   0  0  0  0  0  0  0  0  0  0  0  0
  -27.7500  -27.8880   -3.1420 H   0  0  0  0  0  0  0  0  0  0  0  0
  -29.8400  -27.2680   -1.9790 H   0  0  0  0  0  0  0  0  0  0  0  0
  -29.7420  -26.0590    0.1740 H   0  0  0  0  0  0  0  0  0  0  0  0
  -27.5620  -25.4730    1.1670 H   0  0  0  0  0  0  0  0  0  0  0  0
  -19.5050  -22.6140    2.7500 H   0  0  0  0  0  0  0  0  0  0  0  0
  -14.9370  -21.6900   -2.8740 H   0  0  0  0  0  0  0  0  0  0  0  0
  -12.5400  -21.3420   -3.3090 H   0  0  0  0  0  0  0  0  0  0  0  0
  -10.2280  -21.2740    0.3420 H   0  0  0  0  0  0  0  0  0  0  0  0
   -9.5590  -22.1180   -1.0750 H   0  0  0  0  0  0  0  0  0  0  0  0
   -7.7810  -20.7590    0.0610 H   0  0  0  0  0  0  0  0  0  0  0  0
   -8.7730  -19.2960   -0.1440 H   0  0  0  0  0  0  0  0  0  0  0  0
   -5.8330  -21.4060   -3.0650 H   0  0  0  0  0  0  0  0  0  0  0  0
   -4.2930  -20.5270   -2.9140 H   0  0  0  0  0  0  0  0  0  0  0  0
    2.8850  -35.7070    3.3000 H   0  0  0  0  0  0  0  0  0  0  0  0
    4.0120  -35.9770    1.9490 H   0  0  0  0  0  0  0  0  0  0  0  0
    2.6140  -34.8950    1.7400 H   0  0  0  0  0  0  0  0  0  0  0  0
    4.6660  -35.0820    4.7690 H   0  0  0  0  0  0  0  0  0  0  0  0
    5.7620  -33.7280    4.4050 H   0  0  0  0  0  0  0  0  0  0  0  0
    5.9170  -35.2620    3.5160 H   0  0  0  0  0  0  0  0  0  0  0  0
    2.7720  -33.6350    4.4720 H   0  0  0  0  0  0  0  0  0  0  0  0
    2.5400  -32.6850    2.9840 H   0  0  0  0  0  0  0  0  0  0  0  0
    3.8600  -32.2750    4.1050 H   0  0  0  0  0  0  0  0  0  0  0  0
    9.3610  -27.3360   -1.1150 H   0  0  0  0  0  0  0  0  0  0  0  0
   11.6600  -26.5650   -1.5140 H   0  0  0  0  0  0  0  0  0  0  0  0
   16.8810  -26.4960   -1.7970 H   0  0  0  0  0  0  0  0  0  0  0  0
  1  2  1  0  0  0  0
  1110  1  0  0  0  0
  1111  1  0  0  0  0
  1112  1  0  0  0  0
  2  3  2  0  0  0  0
  2109  1  0  0  0  0
  3  4  1  0  0  0  0
  3107  1  0  0  0  0
  4  5  1  0  0  0  0
  4106  2  0  0  0  0
  5  6  2  0  0  0  0
  5113  1  0  0  0  0
  6  7  1  0  0  0  0
  6114  1  0  0  0  0
  7  8  1  0  0  0  0
  7105  2  0  0  0  0
  8  9  1  0  0  0  0
  8 10  1  0  0  0  0
  8115  1  0  0  0  0
  9116  1  0  0  0  0
  9117  1  0  0  0  0
  9118  1  0  0  0  0
 10 11  1  0  0  0  0
 10119  1  0  0  0  0
 11 12  2  0  0  0  0
 11 13  1  0  0  0  0
 13 14  1  0  0  0  0
 13 18  1  0  0  0  0
 13120  1  0  0  0  0
 14 15  1  0  0  0  0
 14121  1  0  0  0  0
 14122  1  0  0  0  0
 15 16  1  0  0  0  0
 15 17  1  0  0  0  0
 15123  1  0  0  0  0
 16124  1  0  0  0  0
 17 18  1  0  0  0  0
 17125  1  0  0  0  0
 17126  1  0  0  0  0
 18 19  1  0  0  0  0
 19 20  2  0  0  0  0
 19 21  1  0  0  0  0
 21 22  1  0  0  0  0
 21101  1  0  0  0  0
 21127  1  0  0  0  0
 22 23  1  0  0  0  0
 22128  1  0  0  0  0
 23 24  2  0  0  0  0
 23 25  1  0  0  0  0
 25 26  1  0  0  0  0
 25129  1  0  0  0  0
 25130  1  0  0  0  0
 26 27  1  0  0  0  0
 26131  1  0  0  0  0
 26132  1  0  0  0  0
 27 28  1  0  0  0  0
 27133  1  0  0  0  0
 27134  1  0  0  0  0
 28 29  1  0  0  0  0
 28135  1  0  0  0  0
 28136  1  0  0  0  0
 29 30  1  0  0  0  0
 29137  1  0  0  0  0
 29138  1  0  0  0  0
 30 31  1  0  0  0  0
 30139  1  0  0  0  0
 30140  1  0  0  0  0
 31 32  1  0  0  0  0
 31141  1  0  0  0  0
 31142  1  0  0  0  0
 32 33  1  0  0  0  0
 32143  1  0  0  0  0
 32144  1  0  0  0  0
 33 34  2  0  0  0  0
 33 35  1  0  0  0  0
 35 36  1  0  0  0  0
 35145  1  0  0  0  0
 36 37  1  0  0  0  0
 36146  1  0  0  0  0
 36147  1  0  0  0  0
 37 38  1  0  0  0  0
 37 39  1  0  0  0  0
 37100  1  0  0  0  0
 38148  1  0  0  0  0
 38149  1  0  0  0  0
 38150  1  0  0  0  0
 39 40  1  0  0  0  0
 39151  1  0  0  0  0
 39152  1  0  0  0  0
 40 41  1  0  0  0  0
 40153  1  0  0  0  0
 40154  1  0  0  0  0
 41 42  1  0  0  0  0
 41 49  2  0  0  0  0
 42 43  1  0  0  0  0
 42 48  2  0  0  0  0
 43 44  2  0  0  0  0
 43155  1  0  0  0  0
 44 45  1  0  0  0  0
 44156  1  0  0  0  0
 45 46  1  0  0  0  0
 45 47  2  0  0  0  0
 47 48  1  0  0  0  0
 47157  1  0  0  0  0
 48158  1  0  0  0  0
 49 50  1  0  0  0  0
 49100  1  0  0  0  0
 50 51  1  0  0  0  0
 50159  1  0  0  0  0
 50160  1  0  0  0  0
 51 52  1  0  0  0  0
 51 99  1  0  0  0  0
 51161  1  0  0  0  0
 52 53  1  0  0  0  0
 52162  1  0  0  0  0
 52163  1  0  0  0  0
 53 54  1  0  0  0  0
 53164  1  0  0  0  0
 53165  1  0  0  0  0
 54 55  1  0  0  0  0
 54 98  1  0  0  0  0
 55 56  1  0  0  0  0
 55 97  2  0  0  0  0
 56 57  2  0  0  0  0
 56166  1  0  0  0  0
 57 58  1  0  0  0  0
 57167  1  0  0  0  0
 58 59  1  0  0  0  0
 58 96  2  0  0  0  0
 59 60  2  0  0  0  0
 59 61  1  0  0  0  0
 61 62  1  0  0  0  0
 61168  1  0  0  0  0
 62 63  2  0  0  0  0
 62 64  2  0  0  0  0
 62 65  1  0  0  0  0
 65 66  1  0  0  0  0
 65 95  2  0  0  0  0
 66 67  2  0  0  0  0
 66169  1  0  0  0  0
 67 68  1  0  0  0  0
 67170  1  0  0  0  0
 68 69  1  0  0  0  0
 68 87  2  0  0  0  0
 69 70  1  0  0  0  0
 69171  1  0  0  0  0
 70 71  1  0  0  0  0
 70 79  1  0  0  0  0
 70172  1  0  0  0  0
 71 72  1  0  0  0  0
 71173  1  0  0  0  0
 71174  1  0  0  0  0
 72 73  1  0  0  0  0
 72175  1  0  0  0  0
 72176  1  0  0  0  0
 73 74  1  0  0  0  0
 73 78  1  0  0  0  0
 73177  1  0  0  0  0
 74 75  1  0  0  0  0
 74178  1  0  0  0  0
 74179  1  0  0  0  0
 75 76  1  0  0  0  0
 75180  1  0  0  0  0
 75181  1  0  0  0  0
 76 77  1  0  0  0  0
 77 78  1  0  0  0  0
 77182  1  0  0  0  0
 77183  1  0  0  0  0
 78184  1  0  0  0  0
 78185  1  0  0  0  0
 79 80  1  0  0  0  0
 79186  1  0  0  0  0
 79187  1  0  0  0  0
 80 81  1  0  0  0  0
 81 82  1  0  0  0  0
 81 86  2  0  0  0  0
 82 83  2  0  0  0  0
 82188  1  0  0  0  0
 83 84  1  0  0  0  0
 83189  1  0  0  0  0
 84 85  2  0  0  0  0
 84190  1  0  0  0  0
 85 86  1  0  0  0  0
 85191  1  0  0  0  0
 86192  1  0  0  0  0
 87 88  1  0  0  0  0
 87 95  1  0  0  0  0
 88 89  2  0  0  0  0
 88 90  2  0  0  0  0
 88 91  1  0  0  0  0
 91 92  1  0  0  0  0
 91 93  1  0  0  0  0
 91 94  1  0  0  0  0
 95193  1  0  0  0  0
 96 97  1  0  0  0  0
 96194  1  0  0  0  0
 97195  1  0  0  0  0
 98 99  1  0  0  0  0
 98196  1  0  0  0  0
 98197  1  0  0  0  0
 99198  1  0  0  0  0
 99199  1  0  0  0  0
100200  1  0  0  0  0
100201  1  0  0  0  0
101102  1  0  0  0  0
101103  1  0  0  0  0
101104  1  0  0  0  0
102202  1  0  0  0  0
102203  1  0  0  0  0
102204  1  0  0  0  0
103205  1  0  0  0  0
103206  1  0  0  0  0
103207  1  0  0  0  0
104208  1  0  0  0  0
104209  1  0  0  0  0
104210  1  0  0  0  0
105106  1  0  0  0  0
105211  1  0  0  0  0
106212  1  0  0  0  0
107108  1  0  0  0  0
108109  2  0  0  0  0
108213  1  0  0  0  0
M  CHG  1  51   1
M  CHG  1  73   1
M  END
>  <Compound ID>
2390

>  <Uniprot>
Q07817

>  <Target>
BCL-xL

>  <E3 ligase>
VHL

>  <IC50 (nM, Cellular activities)>
15.9/11.3

>  <Assay (Cellular activities, IC50)>
Inhibit viability of MOLT-4/RS4;11 cells

>  <Article DOI>
10.1021/acs.jmedchem.1c00517

>  <Molecular Weight>
1600.47

>  <Exact Mass>
1598.6252

>  <XLogP3>
13.4

>  <Heavy Atom Count>
109

>  <Ring Count>
10

>  <Hydrogen Bond Acceptor Count>
18

>  <Hydrogen Bond Donor Count>
6

>  <Rotatable Bond Count>
33

>  <Topological Polar Surface Area>
269.09

>  <Molecular Formula>
C80H102ClF3N10O11S4

>  <InChI>
InChI=1S/C80H102ClF3N10O11S4/c1-54(56-20-22-58(23-21-56)73-55(2)86-53-107-73)87-76(99)69-46-64(95)50-94(69)77(100)74(78(3,4)5)89-72(97)19-15-10-8-7-9-14-18-71(96)85-52-79(6)36-34-67(57-24-28-61(81)29-25-57)60(48-79)49-92-38-40-93(41-39-92)63-30-26-59(27-31-63)75(98)90-109(103,104)66-32-33-68(70(47-66)108(101,102)80(82,83)84)88-62(35-37-91-42-44-105-45-43-91)51-106-65-16-12-11-13-17-65/h11-13,16-17,20-33,47,53-54,62,64,69,74,88,95H,7-10,14-15,18-19,34-46,48-52H2,1-6H3,(H,85,96)(H,87,99)(H,89,97)(H,90,98)/t54-,62+,64+,69-,74+,79+/m0/s1

>  <InChI Key>
CWIUDSZQDVZITQ-QFNMACOTSA-N

>  <DC50 (nM)>
14.3/11.6

>  <Assay (DC50/Dmax)>
Degradation of BCL-xL in MOLT-4/RS4;11 cells after 16 h treatment

>  <Name>
PZ703b

>  <Kd (nM, Protac to Target)>
2.5899999

>  <Assay (Protac to Target, Kd)>
Kd was assessed by the AlphaScreen displacement binding assay

>  <Kd (nM, Ternary complex)>
0.64999998

>  <Assay (Ternary complex, Kd)>
Kd between VHL and the complex of protac and BCL-xL was assessed by the AlphaScreen displacement binding assay

$$$$
3213
  MOE2018           3D

211221  0  0  1  0  0  0  0  0999 V2000
   34.7170  -28.3630    0.8170 C   0  0  0  0  0  0  0  0  0  0  0  0
   34.6180  -28.9550   -0.5700 C   0  0  0  0  0  0  0  0  0  0  0  0
   33.7430  -28.5400   -1.5420 C   0  0  0  0  0  0  0  0  0  0  0  0
   32.7250  -27.4990   -1.4830 C   0  0  0  0  0  0  0  0  0  0  0  0
   32.6450  -26.5200   -2.4790 C   0  0  0  0  0  0  0  0  0  0  0  0
   31.6810  -25.5200   -2.4210 C   0  0  0  0  0  0  0  0  0  0  0  0
   30.7690  -25.4730   -1.3660 C   0  0  0  0  0  0  0  0  0  0  0  0
   29.7290  -24.3590   -1.3240 C   0  0  2  0  0  0  0  0  0  0  0  0
   30.0360  -23.4590   -0.1200 C   0  0  0  0  0  0  0  0  0  0  0  0
   28.4500  -24.9830   -1.0770 N   0  0  0  0  0  0  0  0  0  0  0  0
   27.2710  -24.4340   -1.3590 C   0  0  0  0  0  0  0  0  0  0  0  0
   27.1980  -23.3020   -1.8320 O   0  0  0  0  0  0  0  0  0  0  0  0
   25.9890  -25.2400   -0.9920 C   0  0  2  0  0  0  0  0  0  0  0  0
   24.7500  -24.3620   -0.7200 C   0  0  0  0  0  0  0  0  0  0  0  0
   24.0520  -25.0090    0.4750 C   0  0  1  0  0  0  0  0  0  0  0  0
   23.1860  -26.0390    0.0240 O   0  0  0  0  0  0  0  0  0  0  0  0
   25.2630  -25.5700    1.2240 C   0  0  0  0  0  0  0  0  0  0  0  0
   26.1060  -26.1370    0.1770 N   0  0  0  0  0  0  0  0  0  0  0  0
   26.5470  -27.4080    0.0210 C   0  0  0  0  0  0  0  0  0  0  0  0
   27.3960  -27.5860   -0.8490 O   0  0  0  0  0  0  0  0  0  0  0  0
   25.9580  -28.6250    0.8330 C   0  0  1  0  0  0  0  0  0  0  0  0
   24.5220  -28.4480    1.1380 N   0  0  0  0  0  0  0  0  0  0  0  0
   23.9690  -28.6870    2.3240 C   0  0  0  0  0  0  0  0  0  0  0  0
   24.5950  -29.1810    3.2510 O   0  0  0  0  0  0  0  0  0  0  0  0
   22.5380  -28.2110    2.5470 C   0  0  0  0  0  0  0  0  0  0  0  0
   21.5380  -28.7220    1.4900 C   0  0  0  0  0  0  0  0  0  0  0  0
   20.0980  -28.2410    1.7630 C   0  0  0  0  0  0  0  0  0  0  0  0
   19.8620  -26.7250    1.6350 C   0  0  0  0  0  0  0  0  0  0  0  0
   20.7410  -26.0020    1.1740 O   0  0  0  0  0  0  0  0  0  0  0  0
   18.6750  -26.1950    2.0020 N   0  0  0  0  0  0  0  0  0  0  0  0
   18.4830  -24.7190    2.0110 C   0  0  0  0  0  0  0  0  0  0  0  0
   17.3970  -24.4190    0.9540 C   0  0  0  0  0  0  0  0  0  0  0  0
   16.1390  -25.1250    1.3740 N   0  3  0  0  0  0  0  0  0  0  0  0
   15.0650  -24.7700    0.4120 C   0  0  0  0  0  0  0  0  0  0  0  0
   13.7900  -24.3520    1.2140 C   0  0  1  0  0  0  0  0  0  0  0  0
   13.2780  -25.5450    2.0590 C   0  0  0  0  0  0  0  0  0  0  0  0
   14.1550  -23.1820    2.1850 C   0  0  0  0  0  0  0  0  0  0  0  0
   12.9530  -22.2450    2.3890 C   0  0  0  0  0  0  0  0  0  0  0  0
   12.7100  -21.6540    1.0150 C   0  0  0  0  0  0  0  0  0  0  0  0
   12.6120  -20.2000    0.9330 C   0  0  0  0  0  0  0  0  0  0  0  0
   13.4730  -19.4610    0.1090 C   0  0  0  0  0  0  0  0  0  0  0  0
   13.3490  -18.0800    0.0100 C   0  0  0  0  0  0  0  0  0  0  0  0
   12.3680  -17.4150    0.7460 C   0  0  0  0  0  0  0  0  0  0  0  0
   12.2010  -15.6960    0.6110 Cl  0  0  0  0  0  0  0  0  0  0  0  0
   11.5230  -18.1340    1.5910 C   0  0  0  0  0  0  0  0  0  0  0  0
   11.6490  -19.5140    1.6860 C   0  0  0  0  0  0  0  0  0  0  0  0
   12.5800  -22.4870   -0.0420 C   0  0  0  0  0  0  0  0  0  0  0  0
   12.2450  -21.9830   -1.4390 C   0  0  0  0  0  0  0  0  0  0  0  0
   10.8110  -22.2460   -1.5860 N   0  3  0  0  0  0  0  0  0  0  0  0
   10.4570  -22.0990   -3.0390 C   0  0  0  0  0  0  0  0  0  0  0  0
    8.9460  -22.4030   -3.2250 C   0  0  0  0  0  0  0  0  0  0  0  0
    8.2050  -21.4240   -2.3920 N   0  0  0  0  0  0  0  0  0  0  0  0
    6.8750  -21.1030   -2.7160 C   0  0  0  0  0  0  0  0  0  0  0  0
    6.3360  -19.9040   -2.2360 C   0  0  0  0  0  0  0  0  0  0  0  0
    5.0250  -19.5630   -2.5310 C   0  0  0  0  0  0  0  0  0  0  0  0
    4.2150  -20.4010   -3.3170 C   0  0  0  0  0  0  0  0  0  0  0  0
    2.8260  -20.0200   -3.5910 C   0  0  0  0  0  0  0  0  0  0  0  0
    2.3780  -18.9120   -3.3460 O   0  0  0  0  0  0  0  0  0  0  0  0
    1.9800  -20.9550   -4.0870 N   0  0  0  0  0  0  0  0  0  0  0  0
    0.3630  -20.6610   -4.2410 S   0  0  0  0  0  0  0  0  0  0  0  0
   -0.2130  -21.8400   -4.7720 O   0  0  0  0  0  0  0  0  0  0  0  0
    0.1510  -19.4730   -4.9810 O   0  0  0  0  0  0  0  0  0  0  0  0
   -0.2560  -20.4320   -2.5530 C   0  0  0  0  0  0  0  0  0  0  0  0
   -0.3620  -19.1570   -1.9960 C   0  0  0  0  0  0  0  0  0  0  0  0
   -0.8670  -18.9820   -0.7170 C   0  0  0  0  0  0  0  0  0  0  0  0
   -1.2960  -20.0800    0.0300 C   0  0  0  0  0  0  0  0  0  0  0  0
   -1.7940  -19.7770    1.3070 N   0  0  0  0  0  0  0  0  0  0  0  0
   -3.2420  -19.6280    1.5340 C   0  0  2  0  0  0  0  0  0  0  0  0
   -3.8220  -18.5660    0.5830 C   0  0  0  0  0  0  0  0  0  0  0  0
   -5.3600  -18.7010    0.6980 C   0  0  0  0  0  0  0  0  0  0  0  0
   -6.0590  -17.8840   -0.3380 N   0  3  0  0  0  0  0  0  0  0  0  0
   -5.6320  -16.4470   -0.2740 C   0  0  0  0  0  0  0  0  0  0  0  0
   -6.4760  -15.6660   -1.3080 C   0  0  0  0  0  0  0  0  0  0  0  0
   -6.2080  -16.2420   -2.5860 O   0  0  0  0  0  0  0  0  0  0  0  0
   -6.5980  -17.6080   -2.7220 C   0  0  0  0  0  0  0  0  0  0  0  0
   -5.7570  -18.4200   -1.7090 C   0  0  0  0  0  0  0  0  0  0  0  0
   -3.4060  -19.2420    3.0220 C   0  0  0  0  0  0  0  0  0  0  0  0
   -4.0050  -20.7540    3.8520 S   0  0  0  0  0  0  0  0  0  0  0  0
   -5.6570  -20.7740    3.2940 C   0  0  0  0  0  0  0  0  0  0  0  0
   -6.5540  -19.7800    3.7020 C   0  0  0  0  0  0  0  0  0  0  0  0
   -7.8500  -19.7610    3.1970 C   0  0  0  0  0  0  0  0  0  0  0  0
   -8.2620  -20.7360    2.2910 C   0  0  0  0  0  0  0  0  0  0  0  0
   -7.3770  -21.7390    1.9000 C   0  0  0  0  0  0  0  0  0  0  0  0
   -6.0820  -21.7650    2.4030 C   0  0  0  0  0  0  0  0  0  0  0  0
   -1.1920  -21.3840   -0.4980 C   0  0  0  0  0  0  0  0  0  0  0  0
   -1.7130  -22.8730    0.3900 S   0  0  0  0  0  0  0  0  0  0  0  0
   -3.0520  -22.6890    0.8430 O   0  0  0  0  0  0  0  0  0  0  0  0
   -1.5200  -23.9870   -0.4770 O   0  0  0  0  0  0  0  0  0  0  0  0
   -0.5090  -22.9800    1.8540 C   0  0  0  0  0  0  0  0  0  0  0  0
    0.7930  -22.9000    1.4890 F   0  0  0  0  0  0  0  0  0  0  0  0
   -0.6580  -21.9860    2.7660 F   0  0  0  0  0  0  0  0  0  0  0  0
   -0.5950  -24.1210    2.5740 F   0  0  0  0  0  0  0  0  0  0  0  0
   -0.6810  -21.5280   -1.7940 C   0  0  0  0  0  0  0  0  0  0  0  0
    4.7790  -21.5920   -3.8150 C   0  0  0  0  0  0  0  0  0  0  0  0
    6.0880  -21.9440   -3.5170 C   0  0  0  0  0  0  0  0  0  0  0  0
    8.5410  -21.4590   -0.9440 C   0  0  0  0  0  0  0  0  0  0  0  0
   10.0610  -21.1820   -0.8280 C   0  0  0  0  0  0  0  0  0  0  0  0
   12.6590  -23.9950    0.1770 C   0  0  0  0  0  0  0  0  0  0  0  0
   16.3840  -26.6080    1.3010 C   0  0  0  0  0  0  0  0  0  0  0  0
   17.4640  -26.9820    2.3530 C   0  0  0  0  0  0  0  0  0  0  0  0
   26.2070  -30.0490    0.1970 C   0  0  0  0  0  0  0  0  0  0  0  0
   25.5600  -31.1850    1.0260 C   0  0  0  0  0  0  0  0  0  0  0  0
   27.7070  -30.4260    0.1650 C   0  0  0  0  0  0  0  0  0  0  0  0
   25.6230  -30.1740   -1.2260 C   0  0  0  0  0  0  0  0  0  0  0  0
   30.8390  -26.4540   -0.3720 C   0  0  0  0  0  0  0  0  0  0  0  0
   31.8010  -27.4550   -0.4330 C   0  0  0  0  0  0  0  0  0  0  0  0
   33.9850  -29.4630   -2.9670 S   0  0  0  0  0  0  0  0  0  0  0  0
   35.2160  -30.3430   -2.1510 C   0  0  0  0  0  0  0  0  0  0  0  0
   35.4400  -29.9770   -0.9220 N   0  0  0  0  0  0  0  0  0  0  0  0
   33.9880  -27.5600    0.9220 H   0  0  0  0  0  0  0  0  0  0  0  0
   35.7200  -27.9650    0.9720 H   0  0  0  0  0  0  0  0  0  0  0  0
   34.5150  -29.1370    1.5580 H   0  0  0  0  0  0  0  0  0  0  0  0
   33.3420  -26.5410   -3.3040 H   0  0  0  0  0  0  0  0  0  0  0  0
   31.6380  -24.7730   -3.2000 H   0  0  0  0  0  0  0  0  0  0  0  0
   29.7320  -23.7840   -2.2500 H   0  0  0  0  0  0  0  0  0  0  0  0
   30.0270  -24.0560    0.7920 H   0  0  0  0  0  0  0  0  0  0  0  0
   29.2810  -22.6760   -0.0490 H   0  0  0  0  0  0  0  0  0  0  0  0
   31.0190  -23.0050   -0.2470 H   0  0  0  0  0  0  0  0  0  0  0  0
   28.4500  -25.9030   -0.6600 H   0  0  0  0  0  0  0  0  0  0  0  0
   25.8670  -25.8340   -1.8980 H   0  0  0  0  0  0  0  0  0  0  0  0
   24.0910  -24.3520   -1.5880 H   0  0  0  0  0  0  0  0  0  0  0  0
   25.0500  -23.3420   -0.4800 H   0  0  0  0  0  0  0  0  0  0  0  0
   23.4240  -24.3510    1.0760 H   0  0  0  0  0  0  0  0  0  0  0  0
   23.7060  -26.6420   -0.5120 H   0  0  0  0  0  0  0  0  0  0  0  0
   24.9560  -26.3400    1.9320 H   0  0  0  0  0  0  0  0  0  0  0  0
   25.7890  -24.7770    1.7560 H   0  0  0  0  0  0  0  0  0  0  0  0
   26.5310  -28.6120    1.7600 H   0  0  0  0  0  0  0  0  0  0  0  0
   23.9200  -28.1230    0.3950 H   0  0  0  0  0  0  0  0  0  0  0  0
   22.2090  -28.5580    3.5270 H   0  0  0  0  0  0  0  0  0  0  0  0
   22.5320  -27.1210    2.5270 H   0  0  0  0  0  0  0  0  0  0  0  0
   21.5500  -29.8120    1.4950 H   0  0  0  0  0  0  0  0  0  0  0  0
   21.8480  -28.3590    0.5100 H   0  0  0  0  0  0  0  0  0  0  0  0
   19.8340  -28.5360    2.7790 H   0  0  0  0  0  0  0  0  0  0  0  0
   19.4380  -28.7430    1.0560 H   0  0  0  0  0  0  0  0  0  0  0  0
   18.1540  -24.3870    2.9960 H   0  0  0  0  0  0  0  0  0  0  0  0
   19.4140  -24.2150    1.7500 H   0  0  0  0  0  0  0  0  0  0  0  0
   17.7190  -24.7830   -0.0220 H   0  0  0  0  0  0  0  0  0  0  0  0
   17.2190  -23.3450    0.9000 H   0  0  0  0  0  0  0  0  0  0  0  0
   15.8730  -24.8590    2.3110 H   0  0  0  0  0  0  0  0  0  0  0  0
   15.3930  -23.9400   -0.2140 H   0  0  0  0  0  0  0  0  0  0  0  0
   14.8370  -25.6310   -0.2170 H   0  0  0  0  0  0  0  0  0  0  0  0
   12.3900  -25.2430    2.6140 H   0  0  0  0  0  0  0  0  0  0  0  0
   14.0550  -25.8550    2.7580 H   0  0  0  0  0  0  0  0  0  0  0  0
   13.0290  -26.3770    1.4000 H   0  0  0  0  0  0  0  0  0  0  0  0
   14.4520  -23.5970    3.1480 H   0  0  0  0  0  0  0  0  0  0  0  0
   14.9840  -22.6130    1.7630 H   0  0  0  0  0  0  0  0  0  0  0  0
   13.1900  -21.4630    3.1110 H   0  0  0  0  0  0  0  0  0  0  0  0
   12.0810  -22.8030    2.7300 H   0  0  0  0  0  0  0  0  0  0  0  0
   14.2410  -19.9700   -0.4550 H   0  0  0  0  0  0  0  0  0  0  0  0
   14.0110  -17.5230   -0.6360 H   0  0  0  0  0  0  0  0  0  0  0  0
   10.7720  -17.6180    2.1710 H   0  0  0  0  0  0  0  0  0  0  0  0
   10.9970  -20.0650    2.3480 H   0  0  0  0  0  0  0  0  0  0  0  0
   12.8160  -22.5260   -2.1920 H   0  0  0  0  0  0  0  0  0  0  0  0
   12.4520  -20.9160   -1.5240 H   0  0  0  0  0  0  0  0  0  0  0  0
   10.5810  -23.1690   -1.2450 H   0  0  0  0  0  0  0  0  0  0  0  0
   10.6680  -21.0800   -3.3650 H   0  0  0  0  0  0  0  0  0  0  0  0
   11.0460  -22.7990   -3.6310 H   0  0  0  0  0  0  0  0  0  0  0  0
    8.7250  -23.4180   -2.8970 H   0  0  0  0  0  0  0  0  0  0  0  0
    8.6670  -22.2910   -4.2730 H   0  0  0  0  0  0  0  0  0  0  0  0
    6.9430  -19.2430   -1.6350 H   0  0  0  0  0  0  0  0  0  0  0  0
    4.6190  -18.6370   -2.1500 H   0  0  0  0  0  0  0  0  0  0  0  0
    2.3470  -21.8530   -4.3690 H   0  0  0  0  0  0  0  0  0  0  0  0
   -0.0470  -18.2970   -2.5680 H   0  0  0  0  0  0  0  0  0  0  0  0
   -0.9290  -17.9890   -0.2960 H   0  0  0  0  0  0  0  0  0  0  0  0
   -1.1530  -19.6600    2.0780 H   0  0  0  0  0  0  0  0  0  0  0  0
   -3.7900  -20.5470    1.3250 H   0  0  0  0  0  0  0  0  0  0  0  0
   -3.5040  -17.5690    0.8870 H   0  0  0  0  0  0  0  0  0  0  0  0
   -3.4990  -18.7550   -0.4410 H   0  0  0  0  0  0  0  0  0  0  0  0
   -5.6730  -18.3630    1.6860 H   0  0  0  0  0  0  0  0  0  0  0  0
   -5.6350  -19.7480    0.5680 H   0  0  0  0  0  0  0  0  0  0  0  0
   -7.0510  -17.9400   -0.1550 H   0  0  0  0  0  0  0  0  0  0  0  0
   -5.8080  -16.0500    0.7260 H   0  0  0  0  0  0  0  0  0  0  0  0
   -4.5730  -16.3620   -0.5170 H   0  0  0  0  0  0  0  0  0  0  0  0
   -6.1920  -14.6140   -1.3050 H   0  0  0  0  0  0  0  0  0  0  0  0
   -7.5360  -15.7570   -1.0710 H   0  0  0  0  0  0  0  0  0  0  0  0
   -7.6600  -17.7180   -2.5010 H   0  0  0  0  0  0  0  0  0  0  0  0
   -6.4000  -17.9550   -3.7360 H   0  0  0  0  0  0  0  0  0  0  0  0
   -4.6960  -18.3030   -1.9290 H   0  0  0  0  0  0  0  0  0  0  0  0
   -6.0260  -19.4750   -1.7640 H   0  0  0  0  0  0  0  0  0  0  0  0
   -4.1310  -18.4350    3.1290 H   0  0  0  0  0  0  0  0  0  0  0  0
   -2.4500  -18.9290    3.4420 H   0  0  0  0  0  0  0  0  0  0  0  0
   -6.2400  -19.0270    4.4100 H   0  0  0  0  0  0  0  0  0  0  0  0
   -8.5380  -18.9890    3.5080 H   0  0  0  0  0  0  0  0  0  0  0  0
   -9.2660  -20.7150    1.8920 H   0  0  0  0  0  0  0  0  0  0  0  0
   -7.6990  -22.4990    1.2030 H   0  0  0  0  0  0  0  0  0  0  0  0
   -5.4030  -22.5510    2.1060 H   0  0  0  0  0  0  0  0  0  0  0  0
   -0.6130  -22.5170   -2.2220 H   0  0  0  0  0  0  0  0  0  0  0  0
    4.1830  -22.2420   -4.4390 H   0  0  0  0  0  0  0  0  0  0  0  0
    6.5010  -22.8650   -3.9020 H   0  0  0  0  0  0  0  0  0  0  0  0
    7.9790  -20.6930   -0.4100 H   0  0  0  0  0  0  0  0  0  0  0  0
    8.3060  -22.4390   -0.5280 H   0  0  0  0  0  0  0  0  0  0  0  0
   10.3570  -21.2020    0.2210 H   0  0  0  0  0  0  0  0  0  0  0  0
   10.2880  -20.2030   -1.2510 H   0  0  0  0  0  0  0  0  0  0  0  0
   11.7010  -24.3520    0.5560 H   0  0  0  0  0  0  0  0  0  0  0  0
   12.8780  -24.4830   -0.7730 H   0  0  0  0  0  0  0  0  0  0  0  0
   15.4600  -27.1440    1.5160 H   0  0  0  0  0  0  0  0  0  0  0  0
   16.7350  -26.8740    0.3040 H   0  0  0  0  0  0  0  0  0  0  0  0
   17.6810  -28.0490    2.3090 H   0  0  0  0  0  0  0  0  0  0  0  0
   17.1220  -26.7220    3.3550 H   0  0  0  0  0  0  0  0  0  0  0  0
   25.7600  -32.1430    0.5470 H   0  0  0  0  0  0  0  0  0  0  0  0
   24.4830  -31.0250    1.0830 H   0  0  0  0  0  0  0  0  0  0  0  0
   25.9810  -31.1860    2.0310 H   0  0  0  0  0  0  0  0  0  0  0  0
   27.8240  -31.4140   -0.2810 H   0  0  0  0  0  0  0  0  0  0  0  0
   28.1000  -30.4380    1.1810 H   0  0  0  0  0  0  0  0  0  0  0  0
   28.2530  -29.6920   -0.4280 H   0  0  0  0  0  0  0  0  0  0  0  0
   25.8230  -31.1730   -1.6140 H   0  0  0  0  0  0  0  0  0  0  0  0
   26.0870  -29.4320   -1.8760 H   0  0  0  0  0  0  0  0  0  0  0  0
   24.5470  -30.0060   -1.1930 H   0  0  0  0  0  0  0  0  0  0  0  0
   30.1390  -26.4340    0.4500 H   0  0  0  0  0  0  0  0  0  0  0  0
   31.8360  -28.2090    0.3400 H   0  0  0  0  0  0  0  0  0  0  0  0
   35.7650  -31.1430   -2.6250 H   0  0  0  0  0  0  0  0  0  0  0  0
  1  2  1  0  0  0  0
  1110  1  0  0  0  0
  1111  1  0  0  0  0
  1112  1  0  0  0  0
  2  3  2  0  0  0  0
  2109  1  0  0  0  0
  3  4  1  0  0  0  0
  3107  1  0  0  0  0
  4  5  1  0  0  0  0
  4106  2  0  0  0  0
  5  6  2  0  0  0  0
  5113  1  0  0  0  0
  6  7  1  0  0  0  0
  6114  1  0  0  0  0
  7  8  1  0  0  0  0
  7105  2  0  0  0  0
  8  9  1  0  0  0  0
  8 10  1  0  0  0  0
  8115  1  0  0  0  0
  9116  1  0  0  0  0
  9117  1  0  0  0  0
  9118  1  0  0  0  0
 10 11  1  0  0  0  0
 10119  1  0  0  0  0
 11 12  2  0  0  0  0
 11 13  1  0  0  0  0
 13 14  1  0  0  0  0
 13 18  1  0  0  0  0
 13120  1  0  0  0  0
 14 15  1  0  0  0  0
 14121  1  0  0  0  0
 14122  1  0  0  0  0
 15 16  1  0  0  0  0
 15 17  1  0  0  0  0
 15123  1  0  0  0  0
 16124  1  0  0  0  0
 17 18  1  0  0  0  0
 17125  1  0  0  0  0
 17126  1  0  0  0  0
 18 19  1  0  0  0  0
 19 20  2  0  0  0  0
 19 21  1  0  0  0  0
 21 22  1  0  0  0  0
 21101  1  0  0  0  0
 21127  1  0  0  0  0
 22 23  1  0  0  0  0
 22128  1  0  0  0  0
 23 24  2  0  0  0  0
 23 25  1  0  0  0  0
 25 26  1  0  0  0  0
 25129  1  0  0  0  0
 25130  1  0  0  0  0
 26 27  1  0  0  0  0
 26131  1  0  0  0  0
 26132  1  0  0  0  0
 27 28  1  0  0  0  0
 27133  1  0  0  0  0
 27134  1  0  0  0  0
 28 29  2  0  0  0  0
 28 30  1  0  0  0  0
 30 31  1  0  0  0  0
 30100  1  0  0  0  0
 31 32  1  0  0  0  0
 31135  1  0  0  0  0
 31136  1  0  0  0  0
 32 33  1  0  0  0  0
 32137  1  0  0  0  0
 32138  1  0  0  0  0
 33 34  1  0  0  0  0
 33 99  1  0  0  0  0
 33139  1  0  0  0  0
 34 35  1  0  0  0  0
 34140  1  0  0  0  0
 34141  1  0  0  0  0
 35 36  1  0  0  0  0
 35 37  1  0  0  0  0
 35 98  1  0  0  0  0
 36142  1  0  0  0  0
 36143  1  0  0  0  0
 36144  1  0  0  0  0
 37 38  1  0  0  0  0
 37145  1  0  0  0  0
 37146  1  0  0  0  0
 38 39  1  0  0  0  0
 38147  1  0  0  0  0
 38148  1  0  0  0  0
 39 40  1  0  0  0  0
 39 47  2  0  0  0  0
 40 41  1  0  0  0  0
 40 46  2  0  0  0  0
 41 42  2  0  0  0  0
 41149  1  0  0  0  0
 42 43  1  0  0  0  0
 42150  1  0  0  0  0
 43 44  1  0  0  0  0
 43 45  2  0  0  0  0
 45 46  1  0  0  0  0
 45151  1  0  0  0  0
 46152  1  0  0  0  0
 47 48  1  0  0  0  0
 47 98  1  0  0  0  0
 48 49  1  0  0  0  0
 48153  1  0  0  0  0
 48154  1  0  0  0  0
 49 50  1  0  0  0  0
 49 97  1  0  0  0  0
 49155  1  0  0  0  0
 50 51  1  0  0  0  0
 50156  1  0  0  0  0
 50157  1  0  0  0  0
 51 52  1  0  0  0  0
 51158  1  0  0  0  0
 51159  1  0  0  0  0
 52 53  1  0  0  0  0
 52 96  1  0  0  0  0
 53 54  1  0  0  0  0
 53 95  2  0  0  0  0
 54 55  2  0  0  0  0
 54160  1  0  0  0  0
 55 56  1  0  0  0  0
 55161  1  0  0  0  0
 56 57  1  0  0  0  0
 56 94  2  0  0  0  0
 57 58  2  0  0  0  0
 57 59  1  0  0  0  0
 59 60  1  0  0  0  0
 59162  1  0  0  0  0
 60 61  2  0  0  0  0
 60 62  2  0  0  0  0
 60 63  1  0  0  0  0
 63 64  1  0  0  0  0
 63 93  2  0  0  0  0
 64 65  2  0  0  0  0
 64163  1  0  0  0  0
 65 66  1  0  0  0  0
 65164  1  0  0  0  0
 66 67  1  0  0  0  0
 66 85  2  0  0  0  0
 67 68  1  0  0  0  0
 67165  1  0  0  0  0
 68 69  1  0  0  0  0
 68 77  1  0  0  0  0
 68166  1  0  0  0  0
 69 70  1  0  0  0  0
 69167  1  0  0  0  0
 69168  1  0  0  0  0
 70 71  1  0  0  0  0
 70169  1  0  0  0  0
 70170  1  0  0  0  0
 71 72  1  0  0  0  0
 71 76  1  0  0  0  0
 71171  1  0  0  0  0
 72 73  1  0  0  0  0
 72172  1  0  0  0  0
 72173  1  0  0  0  0
 73 74  1  0  0  0  0
 73174  1  0  0  0  0
 73175  1  0  0  0  0
 74 75  1  0  0  0  0
 75 76  1  0  0  0  0
 75176  1  0  0  0  0
 75177  1  0  0  0  0
 76178  1  0  0  0  0
 76179  1  0  0  0  0
 77 78  1  0  0  0  0
 77180  1  0  0  0  0
 77181  1  0  0  0  0
 78 79  1  0  0  0  0
 79 80  1  0  0  0  0
 79 84  2  0  0  0  0
 80 81  2  0  0  0  0
 80182  1  0  0  0  0
 81 82  1  0  0  0  0
 81183  1  0  0  0  0
 82 83  2  0  0  0  0
 82184  1  0  0  0  0
 83 84  1  0  0  0  0
 83185  1  0  0  0  0
 84186  1  0  0  0  0
 85 86  1  0  0  0  0
 85 93  1  0  0  0  0
 86 87  2  0  0  0  0
 86 88  2  0  0  0  0
 86 89  1  0  0  0  0
 89 90  1  0  0  0  0
 89 91  1  0  0  0  0
 89 92  1  0  0  0  0
 93187  1  0  0  0  0
 94 95  1  0  0  0  0
 94188  1  0  0  0  0
 95189  1  0  0  0  0
 96 97  1  0  0  0  0
 96190  1  0  0  0  0
 96191  1  0  0  0  0
 97192  1  0  0  0  0
 97193  1  0  0  0  0
 98194  1  0  0  0  0
 98195  1  0  0  0  0
 99100  1  0  0  0  0
 99196  1  0  0  0  0
 99197  1  0  0  0  0
100198  1  0  0  0  0
100199  1  0  0  0  0
101102  1  0  0  0  0
101103  1  0  0  0  0
101104  1  0  0  0  0
102200  1  0  0  0  0
102201  1  0  0  0  0
102202  1  0  0  0  0
103203  1  0  0  0  0
103204  1  0  0  0  0
103205  1  0  0  0  0
104206  1  0  0  0  0
104207  1  0  0  0  0
104208  1  0  0  0  0
105106  1  0  0  0  0
105209  1  0  0  0  0
106210  1  0  0  0  0
107108  1  0  0  0  0
108109  2  0  0  0  0
108211  1  0  0  0  0
M  CHG  1  33   1
M  CHG  1  49   1
M  CHG  1  71   1
M  END
>  <Compound ID>
3213

>  <Uniprot>
Q07817

>  <Target>
BCL-xL

>  <E3 ligase>
VHL

>  <Article DOI>
10.1038/s41467-021-27210-x

>  <Molecular Weight>
1599.442

>  <Exact Mass>
1597.6049

>  <XLogP3>
10.87

>  <Heavy Atom Count>
109

>  <Ring Count>
11

>  <Hydrogen Bond Acceptor Count>
19

>  <Hydrogen Bond Donor Count>
5

>  <Rotatable Bond Count>
28

>  <Topological Polar Surface Area>
263.54001

>  <Molecular Formula>
C79H99ClF3N11O11S4

>  <InChI>
InChI=1S/C79H99ClF3N11O11S4/c1-53(55-15-17-57(18-16-55)72-54(2)84-52-107-72)85-75(99)68-45-63(95)49-94(68)76(100)73(77(3,4)5)87-70(96)13-10-14-71(97)93-39-35-91(36-40-93)51-78(6)31-29-66(56-19-23-60(80)24-20-56)59(47-78)48-90-33-37-92(38-34-90)62-25-21-58(22-26-62)74(98)88-109(103,104)65-27-28-67(69(46-65)108(101,102)79(81,82)83)86-61(30-32-89-41-43-105-44-42-89)50-106-64-11-8-7-9-12-64/h7-9,11-12,15-28,46,52-53,61,63,68,73,86,95H,10,13-14,29-45,47-51H2,1-6H3,(H,85,99)(H,87,96)(H,88,98)/t53-,61+,63+,68-,73+,78?/m0/s1

>  <InChI Key>
BRIZMACXBJUXJT-UWPVXNPMSA-N

>  <DC50 (nM)>
316.2

>  <Assay (DC50/Dmax)>
Degradation of BCL-xL in 293T cells after 16 h treatment

>  <Name>
PPC5

>  <Dmax (%)>
56

$$$$
3214
  MOE2018           3D

214224  0  0  1  0  0  0  0  0999 V2000
   19.9900   30.1270   -1.2150 C   0  0  0  0  0  0  0  0  0  0  0  0
   20.1540   30.0250    0.2830 C   0  0  0  0  0  0  0  0  0  0  0  0
   19.3060   30.5770    1.2090 C   0  0  0  0  0  0  0  0  0  0  0  0
   18.0810   31.3380    1.0040 C   0  0  0  0  0  0  0  0  0  0  0  0
   17.0660   30.8600    0.1680 C   0  0  0  0  0  0  0  0  0  0  0  0
   15.8920   31.5820   -0.0110 C   0  0  0  0  0  0  0  0  0  0  0  0
   15.6920   32.7940    0.6490 C   0  0  0  0  0  0  0  0  0  0  0  0
   14.3770   33.5460    0.4450 C   0  0  2  0  0  0  0  0  0  0  0  0
   14.6040   34.5740   -0.6670 C   0  0  0  0  0  0  0  0  0  0  0  0
   14.0670   34.3110    1.6320 N   0  0  0  0  0  0  0  0  0  0  0  0
   13.6570   33.8750    2.8240 C   0  0  0  0  0  0  0  0  0  0  0  0
   13.6900   34.6980    3.7300 O   0  0  0  0  0  0  0  0  0  0  0  0
   13.1870   32.4220    3.1480 C   0  0  2  0  0  0  0  0  0  0  0  0
   14.3230   31.5880    3.7540 C   0  0  0  0  0  0  0  0  0  0  0  0
   13.9370   30.1430    3.4720 C   0  0  1  0  0  0  0  0  0  0  0  0
   13.0690   29.6700    4.4820 O   0  0  0  0  0  0  0  0  0  0  0  0
   13.2130   30.2400    2.1290 C   0  0  0  0  0  0  0  0  0  0  0  0
   12.5890   31.5650    2.1000 N   0  0  0  0  0  0  0  0  0  0  0  0
   11.4030   31.9040    1.5470 C   0  0  0  0  0  0  0  0  0  0  0  0
   10.9810   33.0510    1.6920 O   0  0  0  0  0  0  0  0  0  0  0  0
   10.5130   30.8760    0.7760 C   0  0  1  0  0  0  0  0  0  0  0  0
    9.1010   31.1760    1.0530 N   0  0  0  0  0  0  0  0  0  0  0  0
    8.1810   30.2750    1.3790 C   0  0  0  0  0  0  0  0  0  0  0  0
    8.4400   29.0790    1.4400 O   0  0  0  0  0  0  0  0  0  0  0  0
    6.7840   30.8130    1.6790 C   0  0  0  0  0  0  0  0  0  0  0  0
    5.7250   29.7220    1.9210 C   0  0  0  0  0  0  0  0  0  0  0  0
    4.3510   30.3570    2.1810 C   0  0  0  0  0  0  0  0  0  0  0  0
    3.2640   29.2880    2.3960 C   0  0  0  0  0  0  0  0  0  0  0  0
    1.8730   29.8730    2.6740 C   0  0  0  0  0  0  0  0  0  0  0  0
    1.6720   31.0720    2.5170 O   0  0  0  0  0  0  0  0  0  0  0  0
    0.8510   29.0620    3.0240 N   0  0  0  0  0  0  0  0  0  0  0  0
   -0.4650   29.6570    3.3470 C   0  0  0  0  0  0  0  0  0  0  0  0
   -1.2700   29.5690    2.0310 C   0  0  0  0  0  0  0  0  0  0  0  0
   -1.4210   28.1030    1.6860 N   0  3  0  0  0  0  0  0  0  0  0  0
   -2.3800   27.9490    0.5230 C   0  0  0  0  0  0  0  0  0  0  0  0
   -1.8650   28.2060   -0.9510 C   0  0  1  0  0  0  0  0  0  0  0  0
   -1.0810   29.5320   -1.0940 C   0  0  0  0  0  0  0  0  0  0  0  0
   -0.9900   27.0710   -1.5430 C   0  0  0  0  0  0  0  0  0  0  0  0
   -1.6980   25.7120   -1.3590 C   0  0  0  0  0  0  0  0  0  0  0  0
   -3.0990   25.7990   -1.9490 C   0  0  0  0  0  0  0  0  0  0  0  0
   -3.6660   24.5050   -2.3010 C   0  0  0  0  0  0  0  0  0  0  0  0
   -4.1070   23.6280   -1.3010 C   0  0  0  0  0  0  0  0  0  0  0  0
   -4.7290   22.4310   -1.6330 C   0  0  0  0  0  0  0  0  0  0  0  0
   -4.9080   22.0900   -2.9750 C   0  0  0  0  0  0  0  0  0  0  0  0
   -5.7220   20.6200   -3.3920 Cl  0  0  0  0  0  0  0  0  0  0  0  0
   -4.4390   22.9370   -3.9800 C   0  0  0  0  0  0  0  0  0  0  0  0
   -3.8190   24.1340   -3.6430 C   0  0  0  0  0  0  0  0  0  0  0  0
   -3.7490   26.9760   -2.1570 C   0  0  0  0  0  0  0  0  0  0  0  0
   -5.0890   27.0830   -2.8870 C   0  0  0  0  0  0  0  0  0  0  0  0
   -6.0030   26.1840   -2.1860 N   0  3  0  0  0  0  0  0  0  0  0  0
   -7.0290   25.7000   -3.1710 C   0  0  0  0  0  0  0  0  0  0  0  0
   -7.9510   24.6670   -2.4700 C   0  0  0  0  0  0  0  0  0  0  0  0
   -8.5750   25.3580   -1.3120 N   0  0  0  0  0  0  0  0  0  0  0  0
   -9.7930   24.8770   -0.7980 C   0  0  0  0  0  0  0  0  0  0  0  0
  -10.5730   25.7250   -0.0030 C   0  0  0  0  0  0  0  0  0  0  0  0
  -11.7750   25.2760    0.5220 C   0  0  0  0  0  0  0  0  0  0  0  0
  -12.2400   23.9780    0.2570 C   0  0  0  0  0  0  0  0  0  0  0  0
  -13.5130   23.5270    0.8260 C   0  0  0  0  0  0  0  0  0  0  0  0
  -14.1490   24.1160    1.6830 O   0  0  0  0  0  0  0  0  0  0  0  0
  -14.1110   22.4000    0.4240 N   0  0  0  0  0  0  0  0  0  0  0  0
  -15.1240   22.6680   -0.8480 S   0  0  0  0  0  0  0  0  0  0  0  0
  -15.2260   21.4580   -1.5730 O   0  0  0  0  0  0  0  0  0  0  0  0
  -14.6620   23.7910   -1.5760 O   0  0  0  0  0  0  0  0  0  0  0  0
  -16.7280   23.0660   -0.1110 C   0  0  0  0  0  0  0  0  0  0  0  0
  -16.9800   24.3490    0.3780 C   0  0  0  0  0  0  0  0  0  0  0  0
  -18.2060   24.6630    0.9400 C   0  0  0  0  0  0  0  0  0  0  0  0
  -19.2200   23.7060    1.0070 C   0  0  0  0  0  0  0  0  0  0  0  0
  -20.4110   24.1340    1.6140 N   0  0  0  0  0  0  0  0  0  0  0  0
  -21.5350   24.6580    0.8150 C   0  0  2  0  0  0  0  0  0  0  0  0
  -21.0450   25.8600   -0.0110 C   0  0  0  0  0  0  0  0  0  0  0  0
  -22.1990   26.2380   -0.9670 C   0  0  0  0  0  0  0  0  0  0  0  0
  -21.7530   27.2420   -1.9820 N   0  3  0  0  0  0  0  0  0  0  0  0
  -21.1450   28.4500   -1.3240 C   0  0  0  0  0  0  0  0  0  0  0  0
  -20.8030   29.4660   -2.4390 C   0  0  0  0  0  0  0  0  0  0  0  0
  -19.8830   28.8230   -3.3190 O   0  0  0  0  0  0  0  0  0  0  0  0
  -20.4020   27.6770   -3.9930 C   0  0  0  0  0  0  0  0  0  0  0  0
  -20.7350   26.6300   -2.9050 C   0  0  0  0  0  0  0  0  0  0  0  0
  -22.6210   25.0440    1.8370 C   0  0  0  0  0  0  0  0  0  0  0  0
  -23.2190   23.4600    2.5260 S   0  0  0  0  0  0  0  0  0  0  0  0
  -24.4840   23.8490    3.6720 C   0  0  0  0  0  0  0  0  0  0  0  0
  -25.3330   22.8210    4.0950 C   0  0  0  0  0  0  0  0  0  0  0  0
  -26.3550   23.0800    4.9990 C   0  0  0  0  0  0  0  0  0  0  0  0
  -26.5420   24.3680    5.4950 C   0  0  0  0  0  0  0  0  0  0  0  0
  -25.6970   25.3950    5.0840 C   0  0  0  0  0  0  0  0  0  0  0  0
  -24.6710   25.1430    4.1800 C   0  0  0  0  0  0  0  0  0  0  0  0
  -18.9980   22.4010    0.5230 C   0  0  0  0  0  0  0  0  0  0  0  0
  -20.2530   21.0980    0.5640 S   0  0  0  0  0  0  0  0  0  0  0  0
  -21.4960   21.6410    0.1280 O   0  0  0  0  0  0  0  0  0  0  0  0
  -19.7720   20.0040   -0.2100 O   0  0  0  0  0  0  0  0  0  0  0  0
  -20.3250   20.6130    2.3970 C   0  0  0  0  0  0  0  0  0  0  0  0
  -20.6140   21.6430    3.2270 F   0  0  0  0  0  0  0  0  0  0  0  0
  -21.2380   19.6610    2.6970 F   0  0  0  0  0  0  0  0  0  0  0  0
  -19.1510   20.1290    2.8750 F   0  0  0  0  0  0  0  0  0  0  0  0
  -17.7480   22.1110   -0.0390 C   0  0  0  0  0  0  0  0  0  0  0  0
  -11.4540   23.1400   -0.5540 C   0  0  0  0  0  0  0  0  0  0  0  0
  -10.2450   23.5780   -1.0750 C   0  0  0  0  0  0  0  0  0  0  0  0
   -7.6080   25.9080   -0.3280 C   0  0  0  0  0  0  0  0  0  0  0  0
   -6.7150   26.9180   -1.0960 C   0  0  0  0  0  0  0  0  0  0  0  0
   -3.1190   28.3390   -1.8670 C   0  0  0  0  0  0  0  0  0  0  0  0
   -0.0610   27.4990    1.4280 C   0  0  0  0  0  0  0  0  0  0  0  0
    0.8000   27.6150    2.7180 C   0  0  0  0  0  0  0  0  0  0  0  0
   10.7690   30.8340   -0.7700 C   0  0  0  0  0  0  0  0  0  0  0  0
   12.1820   30.3150   -1.0890 C   0  0  0  0  0  0  0  0  0  0  0  0
    9.8060   29.8580   -1.4810 C   0  0  0  0  0  0  0  0  0  0  0  0
   10.6030   32.2150   -1.4380 C   0  0  0  0  0  0  0  0  0  0  0  0
   16.7140   33.2870    1.4680 C   0  0  0  0  0  0  0  0  0  0  0  0
   17.8880   32.5640    1.6470 C   0  0  0  0  0  0  0  0  0  0  0  0
   19.8810   30.2420    2.7900 S   0  0  0  0  0  0  0  0  0  0  0  0
   21.1920   29.3750    2.0960 C   0  0  0  0  0  0  0  0  0  0  0  0
   21.2090   29.3420    0.7950 N   0  0  0  0  0  0  0  0  0  0  0  0
   19.0960   30.7070   -1.4440 H   0  0  0  0  0  0  0  0  0  0  0  0
   19.8940   29.1270   -1.6390 H   0  0  0  0  0  0  0  0  0  0  0  0
   20.8620   30.6210   -1.6430 H   0  0  0  0  0  0  0  0  0  0  0  0
   17.1960   29.9180   -0.3450 H   0  0  0  0  0  0  0  0  0  0  0  0
   15.1260   31.2000   -0.6690 H   0  0  0  0  0  0  0  0  0  0  0  0
   13.5820   32.8370    0.2160 H   0  0  0  0  0  0  0  0  0  0  0  0
   15.4080   35.2510   -0.3780 H   0  0  0  0  0  0  0  0  0  0  0  0
   13.6890   35.1440   -0.8270 H   0  0  0  0  0  0  0  0  0  0  0  0
   14.8760   34.0590   -1.5880 H   0  0  0  0  0  0  0  0  0  0  0  0
   14.1760   35.3120    1.5470 H   0  0  0  0  0  0  0  0  0  0  0  0
   12.3650   32.6700    3.8190 H   0  0  0  0  0  0  0  0  0  0  0  0
   14.3980   31.7630    4.8270 H   0  0  0  0  0  0  0  0  0  0  0  0
   15.2740   31.8310    3.2790 H   0  0  0  0  0  0  0  0  0  0  0  0
   14.7830   29.4560    3.4500 H   0  0  0  0  0  0  0  0  0  0  0  0
   12.3150   30.2630    4.5180 H   0  0  0  0  0  0  0  0  0  0  0  0
   12.4530   29.4620    2.0510 H   0  0  0  0  0  0  0  0  0  0  0  0
   13.9230   30.1380    1.3080 H   0  0  0  0  0  0  0  0  0  0  0  0
   10.7840   29.8840    1.1380 H   0  0  0  0  0  0  0  0  0  0  0  0
    8.8080   32.1410    0.9910 H   0  0  0  0  0  0  0  0  0  0  0  0
    6.8420   31.4360    2.5710 H   0  0  0  0  0  0  0  0  0  0  0  0
    6.4620   31.4200    0.8320 H   0  0  0  0  0  0  0  0  0  0  0  0
    5.6630   29.0800    1.0420 H   0  0  0  0  0  0  0  0  0  0  0  0
    6.0150   29.1260    2.7860 H   0  0  0  0  0  0  0  0  0  0  0  0
    4.0780   30.9720    1.3240 H   0  0  0  0  0  0  0  0  0  0  0  0
    4.4130   30.9820    3.0720 H   0  0  0  0  0  0  0  0  0  0  0  0
    3.5530   28.6690    3.2450 H   0  0  0  0  0  0  0  0  0  0  0  0
    3.2050   28.6710    1.4990 H   0  0  0  0  0  0  0  0  0  0  0  0
   -0.9580   29.0920    4.1380 H   0  0  0  0  0  0  0  0  0  0  0  0
   -0.3510   30.6950    3.6590 H   0  0  0  0  0  0  0  0  0  0  0  0
   -0.7360   30.0860    1.2330 H   0  0  0  0  0  0  0  0  0  0  0  0
   -2.2520   30.0230    2.1650 H   0  0  0  0  0  0  0  0  0  0  0  0
   -1.8220   27.5940    2.4610 H   0  0  0  0  0  0  0  0  0  0  0  0
   -2.7540   26.9260    0.5540 H   0  0  0  0  0  0  0  0  0  0  0  0
   -3.2030   28.6420    0.6970 H   0  0  0  0  0  0  0  0  0  0  0  0
   -0.7540   29.6510   -2.1270 H   0  0  0  0  0  0  0  0  0  0  0  0
   -0.2110   29.5120   -0.4380 H   0  0  0  0  0  0  0  0  0  0  0  0
   -1.7250   30.3670   -0.8180 H   0  0  0  0  0  0  0  0  0  0  0  0
   -0.8300   27.2540   -2.6060 H   0  0  0  0  0  0  0  0  0  0  0  0
   -0.0290   27.0500   -1.0290 H   0  0  0  0  0  0  0  0  0  0  0  0
   -1.7630   25.4740   -0.2970 H   0  0  0  0  0  0  0  0  0  0  0  0
   -1.1330   24.9330   -1.8720 H   0  0  0  0  0  0  0  0  0  0  0  0
   -3.9620   23.8850   -0.2620 H   0  0  0  0  0  0  0  0  0  0  0  0
   -5.0730   21.7660   -0.8550 H   0  0  0  0  0  0  0  0  0  0  0  0
   -4.5580   22.6630   -5.0180 H   0  0  0  0  0  0  0  0  0  0  0  0
   -3.4520   24.7840   -4.4230 H   0  0  0  0  0  0  0  0  0  0  0  0
   -4.9790   26.7760   -3.9270 H   0  0  0  0  0  0  0  0  0  0  0  0
   -5.4610   28.1070   -2.8480 H   0  0  0  0  0  0  0  0  0  0  0  0
   -5.4810   25.4160   -1.7890 H   0  0  0  0  0  0  0  0  0  0  0  0
   -7.6240   26.5420   -3.5230 H   0  0  0  0  0  0  0  0  0  0  0  0
   -6.5300   25.2290   -4.0180 H   0  0  0  0  0  0  0  0  0  0  0  0
   -7.3650   23.8150   -2.1260 H   0  0  0  0  0  0  0  0  0  0  0  0
   -8.7210   24.3230   -3.1600 H   0  0  0  0  0  0  0  0  0  0  0  0
  -10.2380   26.7310    0.2020 H   0  0  0  0  0  0  0  0  0  0  0  0
  -12.3630   25.9350    1.1440 H   0  0  0  0  0  0  0  0  0  0  0  0
  -13.9600   21.4960    0.8480 H   0  0  0  0  0  0  0  0  0  0  0  0
  -16.2110   25.1050    0.3170 H   0  0  0  0  0  0  0  0  0  0  0  0
  -18.3790   25.6550    1.3290 H   0  0  0  0  0  0  0  0  0  0  0  0
  -20.5000   24.0820    2.6190 H   0  0  0  0  0  0  0  0  0  0  0  0
  -21.9350   23.9370    0.1030 H   0  0  0  0  0  0  0  0  0  0  0  0
  -20.8110   26.6980    0.6460 H   0  0  0  0  0  0  0  0  0  0  0  0
  -20.1570   25.5870   -0.5820 H   0  0  0  0  0  0  0  0  0  0  0  0
  -23.0190   26.6600   -0.3860 H   0  0  0  0  0  0  0  0  0  0  0  0
  -22.5430   25.3410   -1.4820 H   0  0  0  0  0  0  0  0  0  0  0  0
  -22.5680   27.5280   -2.5050 H   0  0  0  0  0  0  0  0  0  0  0  0
  -21.8560   28.8900   -0.6250 H   0  0  0  0  0  0  0  0  0  0  0  0
  -20.2390   28.1660   -0.7890 H   0  0  0  0  0  0  0  0  0  0  0  0
  -20.3480   30.3570   -2.0070 H   0  0  0  0  0  0  0  0  0  0  0  0
  -21.7060   29.7460   -2.9810 H   0  0  0  0  0  0  0  0  0  0  0  0
  -21.3030   27.9430   -4.5460 H   0  0  0  0  0  0  0  0  0  0  0  0
  -19.6580   27.2780   -4.6820 H   0  0  0  0  0  0  0  0  0  0  0  0
  -19.8340   26.3740   -2.3470 H   0  0  0  0  0  0  0  0  0  0  0  0
  -21.1440   25.7310   -3.3670 H   0  0  0  0  0  0  0  0  0  0  0  0
  -23.4340   25.5780    1.3460 H   0  0  0  0  0  0  0  0  0  0  0  0
  -22.1990   25.6680    2.6250 H   0  0  0  0  0  0  0  0  0  0  0  0
  -25.1930   21.8190    3.7160 H   0  0  0  0  0  0  0  0  0  0  0  0
  -27.0070   22.2800    5.3180 H   0  0  0  0  0  0  0  0  0  0  0  0
  -27.3390   24.5690    6.1950 H   0  0  0  0  0  0  0  0  0  0  0  0
  -25.8390   26.3940    5.4700 H   0  0  0  0  0  0  0  0  0  0  0  0
  -24.0170   25.9440    3.8690 H   0  0  0  0  0  0  0  0  0  0  0  0
  -17.5660   21.1200   -0.4290 H   0  0  0  0  0  0  0  0  0  0  0  0
  -11.7970   22.1400   -0.7750 H   0  0  0  0  0  0  0  0  0  0  0  0
   -9.6520   22.9200   -1.6930 H   0  0  0  0  0  0  0  0  0  0  0  0
   -8.1390   26.4140    0.4780 H   0  0  0  0  0  0  0  0  0  0  0  0
   -6.9970   25.1060    0.0870 H   0  0  0  0  0  0  0  0  0  0  0  0
   -5.9880   27.3600   -0.4140 H   0  0  0  0  0  0  0  0  0  0  0  0
   -7.3350   27.7050   -1.5260 H   0  0  0  0  0  0  0  0  0  0  0  0
   -2.8220   28.7990   -2.8090 H   0  0  0  0  0  0  0  0  0  0  0  0
   -3.8550   28.9710   -1.3700 H   0  0  0  0  0  0  0  0  0  0  0  0
   -0.1730   26.4490    1.1570 H   0  0  0  0  0  0  0  0  0  0  0  0
    0.4280   28.0340    0.6140 H   0  0  0  0  0  0  0  0  0  0  0  0
    1.8030   27.2260    2.5440 H   0  0  0  0  0  0  0  0  0  0  0  0
    0.3350   27.0670    3.5380 H   0  0  0  0  0  0  0  0  0  0  0  0
   12.3280   30.2980   -2.1690 H   0  0  0  0  0  0  0  0  0  0  0  0
   12.2970   29.3070   -0.6910 H   0  0  0  0  0  0  0  0  0  0  0  0
   12.9220   30.9720   -0.6330 H   0  0  0  0  0  0  0  0  0  0  0  0
   10.0150   29.8570   -2.5510 H   0  0  0  0  0  0  0  0  0  0  0  0
    8.7770   30.1750   -1.3120 H   0  0  0  0  0  0  0  0  0  0  0  0
    9.9470   28.8530   -1.0820 H   0  0  0  0  0  0  0  0  0  0  0  0
   10.7920   32.1260   -2.5080 H   0  0  0  0  0  0  0  0  0  0  0  0
   11.3120   32.9180   -1.0010 H   0  0  0  0  0  0  0  0  0  0  0  0
    9.5870   32.5770   -1.2770 H   0  0  0  0  0  0  0  0  0  0  0  0
   16.5900   34.2380    1.9650 H   0  0  0  0  0  0  0  0  0  0  0  0
   18.6610   32.9550    2.2920 H   0  0  0  0  0  0  0  0  0  0  0  0
   21.9480   28.8920    2.6970 H   0  0  0  0  0  0  0  0  0  0  0  0
  1  2  1  0  0  0  0
  1111  1  0  0  0  0
  1112  1  0  0  0  0
  1113  1  0  0  0  0
  2  3  2  0  0  0  0
  2110  1  0  0  0  0
  3  4  1  0  0  0  0
  3108  1  0  0  0  0
  4  5  1  0  0  0  0
  4107  2  0  0  0  0
  5  6  2  0  0  0  0
  5114  1  0  0  0  0
  6  7  1  0  0  0  0
  6115  1  0  0  0  0
  7  8  1  0  0  0  0
  7106  2  0  0  0  0
  8  9  1  0  0  0  0
  8 10  1  0  0  0  0
  8116  1  0  0  0  0
  9117  1  0  0  0  0
  9118  1  0  0  0  0
  9119  1  0  0  0  0
 10 11  1  0  0  0  0
 10120  1  0  0  0  0
 11 12  2  0  0  0  0
 11 13  1  0  0  0  0
 13 14  1  0  0  0  0
 13 18  1  0  0  0  0
 13121  1  0  0  0  0
 14 15  1  0  0  0  0
 14122  1  0  0  0  0
 14123  1  0  0  0  0
 15 16  1  0  0  0  0
 15 17  1  0  0  0  0
 15124  1  0  0  0  0
 16125  1  0  0  0  0
 17 18  1  0  0  0  0
 17126  1  0  0  0  0
 17127  1  0  0  0  0
 18 19  1  0  0  0  0
 19 20  2  0  0  0  0
 19 21  1  0  0  0  0
 21 22  1  0  0  0  0
 21102  1  0  0  0  0
 21128  1  0  0  0  0
 22 23  1  0  0  0  0
 22129  1  0  0  0  0
 23 24  2  0  0  0  0
 23 25  1  0  0  0  0
 25 26  1  0  0  0  0
 25130  1  0  0  0  0
 25131  1  0  0  0  0
 26 27  1  0  0  0  0
 26132  1  0  0  0  0
 26133  1  0  0  0  0
 27 28  1  0  0  0  0
 27134  1  0  0  0  0
 27135  1  0  0  0  0
 28 29  1  0  0  0  0
 28136  1  0  0  0  0
 28137  1  0  0  0  0
 29 30  2  0  0  0  0
 29 31  1  0  0  0  0
 31 32  1  0  0  0  0
 31101  1  0  0  0  0
 32 33  1  0  0  0  0
 32138  1  0  0  0  0
 32139  1  0  0  0  0
 33 34  1  0  0  0  0
 33140  1  0  0  0  0
 33141  1  0  0  0  0
 34 35  1  0  0  0  0
 34100  1  0  0  0  0
 34142  1  0  0  0  0
 35 36  1  0  0  0  0
 35143  1  0  0  0  0
 35144  1  0  0  0  0
 36 37  1  0  0  0  0
 36 38  1  0  0  0  0
 36 99  1  0  0  0  0
 37145  1  0  0  0  0
 37146  1  0  0  0  0
 37147  1  0  0  0  0
 38 39  1  0  0  0  0
 38148  1  0  0  0  0
 38149  1  0  0  0  0
 39 40  1  0  0  0  0
 39150  1  0  0  0  0
 39151  1  0  0  0  0
 40 41  1  0  0  0  0
 40 48  2  0  0  0  0
 41 42  1  0  0  0  0
 41 47  2  0  0  0  0
 42 43  2  0  0  0  0
 42152  1  0  0  0  0
 43 44  1  0  0  0  0
 43153  1  0  0  0  0
 44 45  1  0  0  0  0
 44 46  2  0  0  0  0
 46 47  1  0  0  0  0
 46154  1  0  0  0  0
 47155  1  0  0  0  0
 48 49  1  0  0  0  0
 48 99  1  0  0  0  0
 49 50  1  0  0  0  0
 49156  1  0  0  0  0
 49157  1  0  0  0  0
 50 51  1  0  0  0  0
 50 98  1  0  0  0  0
 50158  1  0  0  0  0
 51 52  1  0  0  0  0
 51159  1  0  0  0  0
 51160  1  0  0  0  0
 52 53  1  0  0  0  0
 52161  1  0  0  0  0
 52162  1  0  0  0  0
 53 54  1  0  0  0  0
 53 97  1  0  0  0  0
 54 55  1  0  0  0  0
 54 96  2  0  0  0  0
 55 56  2  0  0  0  0
 55163  1  0  0  0  0
 56 57  1  0  0  0  0
 56164  1  0  0  0  0
 57 58  1  0  0  0  0
 57 95  2  0  0  0  0
 58 59  2  0  0  0  0
 58 60  1  0  0  0  0
 60 61  1  0  0  0  0
 60165  1  0  0  0  0
 61 62  2  0  0  0  0
 61 63  2  0  0  0  0
 61 64  1  0  0  0  0
 64 65  1  0  0  0  0
 64 94  2  0  0  0  0
 65 66  2  0  0  0  0
 65166  1  0  0  0  0
 66 67  1  0  0  0  0
 66167  1  0  0  0  0
 67 68  1  0  0  0  0
 67 86  2  0  0  0  0
 68 69  1  0  0  0  0
 68168  1  0  0  0  0
 69 70  1  0  0  0  0
 69 78  1  0  0  0  0
 69169  1  0  0  0  0
 70 71  1  0  0  0  0
 70170  1  0  0  0  0
 70171  1  0  0  0  0
 71 72  1  0  0  0  0
 71172  1  0  0  0  0
 71173  1  0  0  0  0
 72 73  1  0  0  0  0
 72 77  1  0  0  0  0
 72174  1  0  0  0  0
 73 74  1  0  0  0  0
 73175  1  0  0  0  0
 73176  1  0  0  0  0
 74 75  1  0  0  0  0
 74177  1  0  0  0  0
 74178  1  0  0  0  0
 75 76  1  0  0  0  0
 76 77  1  0  0  0  0
 76179  1  0  0  0  0
 76180  1  0  0  0  0
 77181  1  0  0  0  0
 77182  1  0  0  0  0
 78 79  1  0  0  0  0
 78183  1  0  0  0  0
 78184  1  0  0  0  0
 79 80  1  0  0  0  0
 80 81  1  0  0  0  0
 80 85  2  0  0  0  0
 81 82  2  0  0  0  0
 81185  1  0  0  0  0
 82 83  1  0  0  0  0
 82186  1  0  0  0  0
 83 84  2  0  0  0  0
 83187  1  0  0  0  0
 84 85  1  0  0  0  0
 84188  1  0  0  0  0
 85189  1  0  0  0  0
 86 87  1  0  0  0  0
 86 94  1  0  0  0  0
 87 88  2  0  0  0  0
 87 89  2  0  0  0  0
 87 90  1  0  0  0  0
 90 91  1  0  0  0  0
 90 92  1  0  0  0  0
 90 93  1  0  0  0  0
 94190  1  0  0  0  0
 95 96  1  0  0  0  0
 95191  1  0  0  0  0
 96192  1  0  0  0  0
 97 98  1  0  0  0  0
 97193  1  0  0  0  0
 97194  1  0  0  0  0
 98195  1  0  0  0  0
 98196  1  0  0  0  0
 99197  1  0  0  0  0
 99198  1  0  0  0  0
100101  1  0  0  0  0
100199  1  0  0  0  0
100200  1  0  0  0  0
101201  1  0  0  0  0
101202  1  0  0  0  0
102103  1  0  0  0  0
102104  1  0  0  0  0
102105  1  0  0  0  0
103203  1  0  0  0  0
103204  1  0  0  0  0
103205  1  0  0  0  0
104206  1  0  0  0  0
104207  1  0  0  0  0
104208  1  0  0  0  0
105209  1  0  0  0  0
105210  1  0  0  0  0
105211  1  0  0  0  0
106107  1  0  0  0  0
106212  1  0  0  0  0
107213  1  0  0  0  0
108109  1  0  0  0  0
109110  2  0  0  0  0
109214  1  0  0  0  0
M  CHG  1  34   1
M  CHG  1  50   1
M  CHG  1  72   1
M  END
>  <Compound ID>
3214

>  <Uniprot>
Q07817

>  <Target>
BCL-xL

>  <E3 ligase>
VHL

>  <Article DOI>
10.1038/s41467-021-27210-x

>  <Molecular Weight>
1613.469

>  <Exact Mass>
1611.6206

>  <XLogP3>
11.23

>  <Heavy Atom Count>
110

>  <Ring Count>
11

>  <Hydrogen Bond Acceptor Count>
19

>  <Hydrogen Bond Donor Count>
5

>  <Rotatable Bond Count>
29

>  <Topological Polar Surface Area>
263.54001

>  <Molecular Formula>
C80H101ClF3N11O11S4

>  <InChI>
InChI=1S/C80H101ClF3N11O11S4/c1-54(56-16-18-58(19-17-56)73-55(2)85-53-108-73)86-76(100)69-46-64(96)50-95(69)77(101)74(78(3,4)5)88-71(97)14-10-11-15-72(98)94-40-36-92(37-41-94)52-79(6)32-30-67(57-20-24-61(81)25-21-57)60(48-79)49-91-34-38-93(39-35-91)63-26-22-59(23-27-63)75(99)89-110(104,105)66-28-29-68(70(47-66)109(102,103)80(82,83)84)87-62(31-33-90-42-44-106-45-43-90)51-107-65-12-8-7-9-13-65/h7-9,12-13,16-29,47,53-54,62,64,69,74,87,96H,10-11,14-15,30-46,48-52H2,1-6H3,(H,86,100)(H,88,97)(H,89,99)/t54-,62+,64+,69-,74+,79?/m0/s1

>  <InChI Key>
KVQKGBLSBLWZKE-AAWIYDMSSA-N

>  <DC50 (nM)>
39.9

>  <Assay (DC50/Dmax)>
Degradation of BCL-xL in 293T cells after 16 h treatment

>  <Name>
PPC6

>  <Dmax (%)>
91

$$$$
3215
  MOE2018           3D

217227  0  0  1  0  0  0  0  0999 V2000
   26.9640  -36.0020   -3.6670 C   0  0  0  0  0  0  0  0  0  0  0  0
   25.9340  -35.0100   -4.1560 C   0  0  0  0  0  0  0  0  0  0  0  0
   25.3350  -34.0480   -3.3820 C   0  0  0  0  0  0  0  0  0  0  0  0
   25.5470  -33.7320   -1.9740 C   0  0  0  0  0  0  0  0  0  0  0  0
   26.8360  -33.5540   -1.4610 C   0  0  0  0  0  0  0  0  0  0  0  0
   27.0340  -33.2590   -0.1170 C   0  0  0  0  0  0  0  0  0  0  0  0
   25.9470  -33.1210    0.7480 C   0  0  0  0  0  0  0  0  0  0  0  0
   26.1990  -32.8170    2.2180 C   0  0  2  0  0  0  0  0  0  0  0  0
   25.8660  -34.0760    3.0250 C   0  0  0  0  0  0  0  0  0  0  0  0
   25.2800  -31.7910    2.6750 N   0  0  0  0  0  0  0  0  0  0  0  0
   25.2450  -30.5070    2.3250 C   0  0  0  0  0  0  0  0  0  0  0  0
   24.4690  -29.7890    2.9410 O   0  0  0  0  0  0  0  0  0  0  0  0
   26.1890  -29.9210    1.2260 C   0  0  2  0  0  0  0  0  0  0  0  0
   27.6120  -29.7170    1.7750 C   0  0  0  0  0  0  0  0  0  0  0  0
   28.1190  -28.4420    1.1100 C   0  0  1  0  0  0  0  0  0  0  0  0
   28.6670  -28.7700   -0.1500 O   0  0  0  0  0  0  0  0  0  0  0  0
   26.8390  -27.6220    0.9560 C   0  0  0  0  0  0  0  0  0  0  0  0
   25.7940  -28.6040    0.7060 N   0  0  0  0  0  0  0  0  0  0  0  0
   24.6010  -28.2660    0.1740 C   0  0  0  0  0  0  0  0  0  0  0  0
   24.3360  -27.0750    0.0020 O   0  0  0  0  0  0  0  0  0  0  0  0
   23.5730  -29.3560   -0.2640 C   0  0  1  0  0  0  0  0  0  0  0  0
   22.2700  -29.1050    0.3610 N   0  0  0  0  0  0  0  0  0  0  0  0
   21.5410  -30.0340    0.9710 C   0  0  0  0  0  0  0  0  0  0  0  0
   21.8570  -31.2190    0.9860 O   0  0  0  0  0  0  0  0  0  0  0  0
   20.2450  -29.5670    1.6200 C   0  0  0  0  0  0  0  0  0  0  0  0
   19.1950  -29.1520    0.5740 C   0  0  0  0  0  0  0  0  0  0  0  0
   17.9230  -28.6120    1.2390 C   0  0  0  0  0  0  0  0  0  0  0  0
   16.9360  -28.1410    0.1610 C   0  0  0  0  0  0  0  0  0  0  0  0
   15.6730  -27.5160    0.7820 C   0  0  0  0  0  0  0  0  0  0  0  0
   14.6990  -26.9320   -0.2530 C   0  0  0  0  0  0  0  0  0  0  0  0
   14.8830  -27.1500   -1.4440 O   0  0  0  0  0  0  0  0  0  0  0  0
   13.6510  -26.1770    0.1480 N   0  0  0  0  0  0  0  0  0  0  0  0
   13.3260  -25.8950    1.5740 C   0  0  0  0  0  0  0  0  0  0  0  0
   11.7930  -26.0720    1.7450 C   0  0  0  0  0  0  0  0  0  0  0  0
   11.1080  -25.1450    0.7880 N   0  3  0  0  0  0  0  0  0  0  0  0
    9.6340  -25.0310    1.1070 C   0  0  0  0  0  0  0  0  0  0  0  0
    8.6490  -26.1900    0.6650 C   0  0  2  0  0  0  0  0  0  0  0  0
    9.1370  -27.5940    1.0860 C   0  0  0  0  0  0  0  0  0  0  0  0
    8.3190  -26.2330   -0.8490 C   0  0  0  0  0  0  0  0  0  0  0  0
    7.9180  -24.8270   -1.3470 C   0  0  0  0  0  0  0  0  0  0  0  0
    6.9200  -24.1810   -0.3880 C   0  0  0  0  0  0  0  0  0  0  0  0
    6.3190  -22.9500   -0.8960 C   0  0  0  0  0  0  0  0  0  0  0  0
    6.5250  -21.7290   -0.2380 C   0  0  0  0  0  0  0  0  0  0  0  0
    5.9340  -20.5610   -0.7050 C   0  0  0  0  0  0  0  0  0  0  0  0
    5.1340  -20.5950   -1.8480 C   0  0  0  0  0  0  0  0  0  0  0  0
    4.3830  -19.1440   -2.4230 Cl  0  0  0  0  0  0  0  0  0  0  0  0
    4.9410  -21.7980   -2.5280 C   0  0  0  0  0  0  0  0  0  0  0  0
    5.5320  -22.9630   -2.0570 C   0  0  0  0  0  0  0  0  0  0  0  0
    6.6380  -24.6840    0.8420 C   0  0  0  0  0  0  0  0  0  0  0  0
    5.6050  -24.0470    1.7630 C   0  0  0  0  0  0  0  0  0  0  0  0
    4.4030  -24.8580    1.5650 N   0  3  0  0  0  0  0  0  0  0  0  0
    3.6130  -24.2410    0.4360 C   0  0  0  0  0  0  0  0  0  0  0  0
    2.3070  -25.0460    0.2140 C   0  0  0  0  0  0  0  0  0  0  0  0
    1.5620  -25.0050    1.4960 N   0  0  0  0  0  0  0  0  0  0  0  0
    0.1690  -25.1390    1.4150 C   0  0  0  0  0  0  0  0  0  0  0  0
   -0.5560  -24.1800    0.6990 C   0  0  0  0  0  0  0  0  0  0  0  0
   -1.9390  -24.2670    0.6240 C   0  0  0  0  0  0  0  0  0  0  0  0
   -2.6330  -25.3100    1.2680 C   0  0  0  0  0  0  0  0  0  0  0  0
   -4.0920  -25.4130    1.2300 C   0  0  0  0  0  0  0  0  0  0  0  0
   -4.6950  -26.4620    1.4010 O   0  0  0  0  0  0  0  0  0  0  0  0
   -4.8300  -24.3080    0.9770 N   0  0  0  0  0  0  0  0  0  0  0  0
   -6.2990  -24.1440    1.7000 S   0  0  0  0  0  0  0  0  0  0  0  0
   -6.1690  -24.4820    3.0680 O   0  0  0  0  0  0  0  0  0  0  0  0
   -6.7630  -22.8410    1.4000 O   0  0  0  0  0  0  0  0  0  0  0  0
   -7.3950  -25.3460    0.8970 C   0  0  0  0  0  0  0  0  0  0  0  0
   -8.0260  -25.0380   -0.3100 C   0  0  0  0  0  0  0  0  0  0  0  0
   -8.8730  -25.9520   -0.9200 C   0  0  0  0  0  0  0  0  0  0  0  0
   -9.1200  -27.1900   -0.3190 C   0  0  0  0  0  0  0  0  0  0  0  0
  -10.0260  -28.0400   -0.9650 N   0  0  0  0  0  0  0  0  0  0  0  0
  -11.4250  -27.9800   -0.4620 C   0  0  2  0  0  0  0  0  0  0  0  0
  -12.1770  -29.1370   -1.1500 C   0  0  0  0  0  0  0  0  0  0  0  0
  -11.6460  -30.4260   -0.5150 C   0  0  0  0  0  0  0  0  0  0  0  0
  -12.3920  -31.5340   -1.1350 N   0  3  0  0  0  0  0  0  0  0  0  0
  -11.5530  -32.7630   -0.9790 C   0  0  0  0  0  0  0  0  0  0  0  0
  -12.3250  -33.9450   -1.6120 C   0  0  0  0  0  0  0  0  0  0  0  0
  -13.5570  -34.0680   -0.9030 O   0  0  0  0  0  0  0  0  0  0  0  0
  -14.4140  -32.9320   -1.0010 C   0  0  0  0  0  0  0  0  0  0  0  0
  -13.6630  -31.7400   -0.3620 C   0  0  0  0  0  0  0  0  0  0  0  0
  -12.0430  -26.6120   -0.8220 C   0  0  0  0  0  0  0  0  0  0  0  0
  -13.7010  -26.5800   -0.0480 S   0  0  0  0  0  0  0  0  0  0  0  0
  -14.4900  -25.1140   -0.5950 C   0  0  0  0  0  0  0  0  0  0  0  0
  -13.8100  -24.0990   -1.2830 C   0  0  0  0  0  0  0  0  0  0  0  0
  -14.4920  -22.9620   -1.7030 C   0  0  0  0  0  0  0  0  0  0  0  0
  -15.8510  -22.8190   -1.4400 C   0  0  0  0  0  0  0  0  0  0  0  0
  -16.5300  -23.8200   -0.7500 C   0  0  0  0  0  0  0  0  0  0  0  0
  -15.8550  -24.9590   -0.3280 C   0  0  0  0  0  0  0  0  0  0  0  0
   -8.4590  -27.5460    0.8700 C   0  0  0  0  0  0  0  0  0  0  0  0
   -8.5440  -29.2050    1.5760 S   0  0  0  0  0  0  0  0  0  0  0  0
   -7.8750  -29.1960    2.8330 O   0  0  0  0  0  0  0  0  0  0  0  0
   -9.9050  -29.6440    1.6250 O   0  0  0  0  0  0  0  0  0  0  0  0
   -7.5700  -30.2480    0.3250 C   0  0  0  0  0  0  0  0  0  0  0  0
   -8.3180  -30.6810   -0.7370 F   0  0  0  0  0  0  0  0  0  0  0  0
   -6.5220  -29.6100   -0.2410 F   0  0  0  0  0  0  0  0  0  0  0  0
   -7.0480  -31.3880    0.8350 F   0  0  0  0  0  0  0  0  0  0  0  0
   -7.6350  -26.5950    1.4770 C   0  0  0  0  0  0  0  0  0  0  0  0
   -1.8870  -26.2740    1.9680 C   0  0  0  0  0  0  0  0  0  0  0  0
   -0.5030  -26.1940    2.0460 C   0  0  0  0  0  0  0  0  0  0  0  0
    2.2830  -25.6070    2.6400 C   0  0  0  0  0  0  0  0  0  0  0  0
    3.5770  -24.7720    2.8210 C   0  0  0  0  0  0  0  0  0  0  0  0
    7.2970  -25.9500    1.3930 C   0  0  0  0  0  0  0  0  0  0  0  0
   11.3800  -25.6240   -0.6010 C   0  0  0  0  0  0  0  0  0  0  0  0
   12.8840  -25.4110   -0.8810 C   0  0  0  0  0  0  0  0  0  0  0  0
   23.4370  -29.4890   -1.8190 C   0  0  0  0  0  0  0  0  0  0  0  0
   24.7970  -29.8730   -2.4350 C   0  0  0  0  0  0  0  0  0  0  0  0
   22.9380  -28.2090   -2.5230 C   0  0  0  0  0  0  0  0  0  0  0  0
   22.4410  -30.6050   -2.1970 C   0  0  0  0  0  0  0  0  0  0  0  0
   24.6560  -33.2810    0.2370 C   0  0  0  0  0  0  0  0  0  0  0  0
   24.4610  -33.5910   -1.1040 C   0  0  0  0  0  0  0  0  0  0  0  0
   24.2110  -33.1660   -4.3290 S   0  0  0  0  0  0  0  0  0  0  0  0
   24.6400  -34.1300   -5.6860 C   0  0  0  0  0  0  0  0  0  0  0  0
   25.5400  -35.0410   -5.4550 N   0  0  0  0  0  0  0  0  0  0  0  0
   27.1580  -35.8320   -2.6080 H   0  0  0  0  0  0  0  0  0  0  0  0
   27.8880  -35.8740   -4.2310 H   0  0  0  0  0  0  0  0  0  0  0  0
   26.5890  -37.0150   -3.8100 H   0  0  0  0  0  0  0  0  0  0  0  0
   27.6880  -33.6470   -2.1180 H   0  0  0  0  0  0  0  0  0  0  0  0
   28.0380  -33.1350    0.2610 H   0  0  0  0  0  0  0  0  0  0  0  0
   27.2330  -32.4970    2.3440 H   0  0  0  0  0  0  0  0  0  0  0  0
   24.8230  -34.3480    2.8600 H   0  0  0  0  0  0  0  0  0  0  0  0
   26.0280  -33.8810    4.0850 H   0  0  0  0  0  0  0  0  0  0  0  0
   26.5100  -34.8950    2.7040 H   0  0  0  0  0  0  0  0  0  0  0  0
   24.5810  -32.0880    3.3410 H   0  0  0  0  0  0  0  0  0  0  0  0
   26.1300  -30.6600    0.4270 H   0  0  0  0  0  0  0  0  0  0  0  0
   28.2470  -30.5630    1.5130 H   0  0  0  0  0  0  0  0  0  0  0  0
   27.5900  -29.6000    2.8590 H   0  0  0  0  0  0  0  0  0  0  0  0
   28.8960  -27.9140    1.6630 H   0  0  0  0  0  0  0  0  0  0  0  0
   27.9920  -29.2360   -0.6480 H   0  0  0  0  0  0  0  0  0  0  0  0
   26.9250  -26.9310    0.1170 H   0  0  0  0  0  0  0  0  0  0  0  0
   26.6300  -27.0630    1.8680 H   0  0  0  0  0  0  0  0  0  0  0  0
   23.9590  -30.3140    0.0850 H   0  0  0  0  0  0  0  0  0  0  0  0
   21.9030  -28.1650    0.3260 H   0  0  0  0  0  0  0  0  0  0  0  0
   19.8400  -30.3800    2.2220 H   0  0  0  0  0  0  0  0  0  0  0  0
   20.4600  -28.7120    2.2610 H   0  0  0  0  0  0  0  0  0  0  0  0
   19.6180  -28.3760   -0.0640 H   0  0  0  0  0  0  0  0  0  0  0  0
   18.9370  -30.0200   -0.0320 H   0  0  0  0  0  0  0  0  0  0  0  0
   18.1800  -27.7730    1.8860 H   0  0  0  0  0  0  0  0  0  0  0  0
   17.4620  -29.4010    1.8330 H   0  0  0  0  0  0  0  0  0  0  0  0
   16.6440  -28.9960   -0.4490 H   0  0  0  0  0  0  0  0  0  0  0  0
   17.4270  -27.3970   -0.4670 H   0  0  0  0  0  0  0  0  0  0  0  0
   15.9810  -26.7160    1.4550 H   0  0  0  0  0  0  0  0  0  0  0  0
   15.1510  -28.2870    1.3490 H   0  0  0  0  0  0  0  0  0  0  0  0
   13.8560  -26.5930    2.2220 H   0  0  0  0  0  0  0  0  0  0  0  0
   13.6140  -24.8740    1.8270 H   0  0  0  0  0  0  0  0  0  0  0  0
   11.5050  -25.8270    2.7670 H   0  0  0  0  0  0  0  0  0  0  0  0
   11.5130  -27.1020    1.5260 H   0  0  0  0  0  0  0  0  0  0  0  0
   11.4720  -24.2070    0.8750 H   0  0  0  0  0  0  0  0  0  0  0  0
    9.5500  -24.9390    2.1900 H   0  0  0  0  0  0  0  0  0  0  0  0
    9.2770  -24.1150    0.6360 H   0  0  0  0  0  0  0  0  0  0  0  0
    8.4180  -28.3430    0.7540 H   0  0  0  0  0  0  0  0  0  0  0  0
    9.2300  -27.6360    2.1710 H   0  0  0  0  0  0  0  0  0  0  0  0
   10.1070  -27.7930    0.6300 H   0  0  0  0  0  0  0  0  0  0  0  0
    9.1960  -26.5730   -1.3990 H   0  0  0  0  0  0  0  0  0  0  0  0
    7.4930  -26.9240   -1.0180 H   0  0  0  0  0  0  0  0  0  0  0  0
    7.4630  -24.9130   -2.3340 H   0  0  0  0  0  0  0  0  0  0  0  0
    8.8090  -24.2020   -1.4110 H   0  0  0  0  0  0  0  0  0  0  0  0
    7.1500  -21.6960    0.6420 H   0  0  0  0  0  0  0  0  0  0  0  0
    6.0940  -19.6280   -0.1840 H   0  0  0  0  0  0  0  0  0  0  0  0
    4.3320  -21.8230   -3.4200 H   0  0  0  0  0  0  0  0  0  0  0  0
    5.3840  -23.8900   -2.5910 H   0  0  0  0  0  0  0  0  0  0  0  0
    5.4230  -23.0100    1.4820 H   0  0  0  0  0  0  0  0  0  0  0  0
    5.9340  -24.0890    2.8010 H   0  0  0  0  0  0  0  0  0  0  0  0
    4.6390  -25.8180    1.3560 H   0  0  0  0  0  0  0  0  0  0  0  0
    3.3650  -23.2100    0.6880 H   0  0  0  0  0  0  0  0  0  0  0  0
    4.2090  -24.2590   -0.4760 H   0  0  0  0  0  0  0  0  0  0  0  0
    2.5410  -26.0770   -0.0520 H   0  0  0  0  0  0  0  0  0  0  0  0
    1.7150  -24.5910   -0.5800 H   0  0  0  0  0  0  0  0  0  0  0  0
   -0.0390  -23.3710    0.2040 H   0  0  0  0  0  0  0  0  0  0  0  0
   -2.4900  -23.5260    0.0650 H   0  0  0  0  0  0  0  0  0  0  0  0
   -4.4840  -23.5930    0.3530 H   0  0  0  0  0  0  0  0  0  0  0  0
   -7.8530  -24.0780   -0.7740 H   0  0  0  0  0  0  0  0  0  0  0  0
   -9.3430  -25.7070   -1.8610 H   0  0  0  0  0  0  0  0  0  0  0  0
   -9.7490  -28.6510   -1.7200 H   0  0  0  0  0  0  0  0  0  0  0  0
  -11.4810  -28.0820    0.6220 H   0  0  0  0  0  0  0  0  0  0  0  0
  -13.2500  -29.0450   -0.9790 H   0  0  0  0  0  0  0  0  0  0  0  0
  -11.9780  -29.1330   -2.2220 H   0  0  0  0  0  0  0  0  0  0  0  0
  -11.8160  -30.4130    0.5620 H   0  0  0  0  0  0  0  0  0  0  0  0
  -10.5790  -30.5320   -0.7130 H   0  0  0  0  0  0  0  0  0  0  0  0
  -12.5980  -31.3420   -2.1050 H   0  0  0  0  0  0  0  0  0  0  0  0
  -10.5990  -32.6280   -1.4880 H   0  0  0  0  0  0  0  0  0  0  0  0
  -11.3760  -32.9590    0.0780 H   0  0  0  0  0  0  0  0  0  0  0  0
  -11.7460  -34.8640   -1.5180 H   0  0  0  0  0  0  0  0  0  0  0  0
  -12.5180  -33.7440   -2.6660 H   0  0  0  0  0  0  0  0  0  0  0  0
  -14.6340  -32.7180   -2.0470 H   0  0  0  0  0  0  0  0  0  0  0  0
  -15.3450  -33.1180   -0.4650 H   0  0  0  0  0  0  0  0  0  0  0  0
  -13.4320  -31.9620    0.6800 H   0  0  0  0  0  0  0  0  0  0  0  0
  -14.2790  -30.8420   -0.4140 H   0  0  0  0  0  0  0  0  0  0  0  0
  -12.1290  -26.5090   -1.9040 H   0  0  0  0  0  0  0  0  0  0  0  0
  -11.4270  -25.8040   -0.4280 H   0  0  0  0  0  0  0  0  0  0  0  0
  -12.7540  -24.2000   -1.4870 H   0  0  0  0  0  0  0  0  0  0  0  0
  -13.9640  -22.1860   -2.2360 H   0  0  0  0  0  0  0  0  0  0  0  0
  -16.3770  -21.9350   -1.7700 H   0  0  0  0  0  0  0  0  0  0  0  0
  -17.5840  -23.7110   -0.5420 H   0  0  0  0  0  0  0  0  0  0  0  0
  -16.3870  -25.7300    0.2100 H   0  0  0  0  0  0  0  0  0  0  0  0
   -7.1700  -26.8320    2.4220 H   0  0  0  0  0  0  0  0  0  0  0  0
   -2.3990  -27.0910    2.4540 H   0  0  0  0  0  0  0  0  0  0  0  0
    0.0530  -26.9420    2.5910 H   0  0  0  0  0  0  0  0  0  0  0  0
    1.6720  -25.5570    3.5410 H   0  0  0  0  0  0  0  0  0  0  0  0
    2.5310  -26.6470    2.4260 H   0  0  0  0  0  0  0  0  0  0  0  0
    4.1500  -25.1650    3.6610 H   0  0  0  0  0  0  0  0  0  0  0  0
    3.3150  -23.7320    3.0140 H   0  0  0  0  0  0  0  0  0  0  0  0
    7.4760  -25.8310    2.4620 H   0  0  0  0  0  0  0  0  0  0  0  0
    6.6390  -26.8030    1.2280 H   0  0  0  0  0  0  0  0  0  0  0  0
   11.1320  -26.6820   -0.6850 H   0  0  0  0  0  0  0  0  0  0  0  0
   10.7850  -25.0540   -1.3140 H   0  0  0  0  0  0  0  0  0  0  0  0
   13.1280  -24.3510   -0.8130 H   0  0  0  0  0  0  0  0  0  0  0  0
   13.1320  -25.7770   -1.8770 H   0  0  0  0  0  0  0  0  0  0  0  0
   24.6940  -29.9630   -3.5160 H   0  0  0  0  0  0  0  0  0  0  0  0
   25.1280  -30.8250   -2.0210 H   0  0  0  0  0  0  0  0  0  0  0  0
   25.5320  -29.1020   -2.2040 H   0  0  0  0  0  0  0  0  0  0  0  0
   22.8720  -28.3870   -3.5960 H   0  0  0  0  0  0  0  0  0  0  0  0
   23.6360  -27.3940   -2.3320 H   0  0  0  0  0  0  0  0  0  0  0  0
   21.9540  -27.9430   -2.1380 H   0  0  0  0  0  0  0  0  0  0  0  0
   22.3670  -30.6740   -3.2820 H   0  0  0  0  0  0  0  0  0  0  0  0
   21.4610  -30.3740   -1.7800 H   0  0  0  0  0  0  0  0  0  0  0  0
   22.7910  -31.5560   -1.7950 H   0  0  0  0  0  0  0  0  0  0  0  0
   23.8030  -33.1630    0.8890 H   0  0  0  0  0  0  0  0  0  0  0  0
   23.4570  -33.7250   -1.4790 H   0  0  0  0  0  0  0  0  0  0  0  0
   24.1950  -33.9900   -6.6600 H   0  0  0  0  0  0  0  0  0  0  0  0
  1  2  1  0  0  0  0
  1112  1  0  0  0  0
  1113  1  0  0  0  0
  1114  1  0  0  0  0
  2  3  2  0  0  0  0
  2111  1  0  0  0  0
  3  4  1  0  0  0  0
  3109  1  0  0  0  0
  4  5  1  0  0  0  0
  4108  2  0  0  0  0
  5  6  2  0  0  0  0
  5115  1  0  0  0  0
  6  7  1  0  0  0  0
  6116  1  0  0  0  0
  7  8  1  0  0  0  0
  7107  2  0  0  0  0
  8  9  1  0  0  0  0
  8 10  1  0  0  0  0
  8117  1  0  0  0  0
  9118  1  0  0  0  0
  9119  1  0  0  0  0
  9120  1  0  0  0  0
 10 11  1  0  0  0  0
 10121  1  0  0  0  0
 11 12  2  0  0  0  0
 11 13  1  0  0  0  0
 13 14  1  0  0  0  0
 13 18  1  0  0  0  0
 13122  1  0  0  0  0
 14 15  1  0  0  0  0
 14123  1  0  0  0  0
 14124  1  0  0  0  0
 15 16  1  0  0  0  0
 15 17  1  0  0  0  0
 15125  1  0  0  0  0
 16126  1  0  0  0  0
 17 18  1  0  0  0  0
 17127  1  0  0  0  0
 17128  1  0  0  0  0
 18 19  1  0  0  0  0
 19 20  2  0  0  0  0
 19 21  1  0  0  0  0
 21 22  1  0  0  0  0
 21103  1  0  0  0  0
 21129  1  0  0  0  0
 22 23  1  0  0  0  0
 22130  1  0  0  0  0
 23 24  2  0  0  0  0
 23 25  1  0  0  0  0
 25 26  1  0  0  0  0
 25131  1  0  0  0  0
 25132  1  0  0  0  0
 26 27  1  0  0  0  0
 26133  1  0  0  0  0
 26134  1  0  0  0  0
 27 28  1  0  0  0  0
 27135  1  0  0  0  0
 27136  1  0  0  0  0
 28 29  1  0  0  0  0
 28137  1  0  0  0  0
 28138  1  0  0  0  0
 29 30  1  0  0  0  0
 29139  1  0  0  0  0
 29140  1  0  0  0  0
 30 31  2  0  0  0  0
 30 32  1  0  0  0  0
 32 33  1  0  0  0  0
 32102  1  0  0  0  0
 33 34  1  0  0  0  0
 33141  1  0  0  0  0
 33142  1  0  0  0  0
 34 35  1  0  0  0  0
 34143  1  0  0  0  0
 34144  1  0  0  0  0
 35 36  1  0  0  0  0
 35101  1  0  0  0  0
 35145  1  0  0  0  0
 36 37  1  0  0  0  0
 36146  1  0  0  0  0
 36147  1  0  0  0  0
 37 38  1  0  0  0  0
 37 39  1  0  0  0  0
 37100  1  0  0  0  0
 38148  1  0  0  0  0
 38149  1  0  0  0  0
 38150  1  0  0  0  0
 39 40  1  0  0  0  0
 39151  1  0  0  0  0
 39152  1  0  0  0  0
 40 41  1  0  0  0  0
 40153  1  0  0  0  0
 40154  1  0  0  0  0
 41 42  1  0  0  0  0
 41 49  2  0  0  0  0
 42 43  1  0  0  0  0
 42 48  2  0  0  0  0
 43 44  2  0  0  0  0
 43155  1  0  0  0  0
 44 45  1  0  0  0  0
 44156  1  0  0  0  0
 45 46  1  0  0  0  0
 45 47  2  0  0  0  0
 47 48  1  0  0  0  0
 47157  1  0  0  0  0
 48158  1  0  0  0  0
 49 50  1  0  0  0  0
 49100  1  0  0  0  0
 50 51  1  0  0  0  0
 50159  1  0  0  0  0
 50160  1  0  0  0  0
 51 52  1  0  0  0  0
 51 99  1  0  0  0  0
 51161  1  0  0  0  0
 52 53  1  0  0  0  0
 52162  1  0  0  0  0
 52163  1  0  0  0  0
 53 54  1  0  0  0  0
 53164  1  0  0  0  0
 53165  1  0  0  0  0
 54 55  1  0  0  0  0
 54 98  1  0  0  0  0
 55 56  1  0  0  0  0
 55 97  2  0  0  0  0
 56 57  2  0  0  0  0
 56166  1  0  0  0  0
 57 58  1  0  0  0  0
 57167  1  0  0  0  0
 58 59  1  0  0  0  0
 58 96  2  0  0  0  0
 59 60  2  0  0  0  0
 59 61  1  0  0  0  0
 61 62  1  0  0  0  0
 61168  1  0  0  0  0
 62 63  2  0  0  0  0
 62 64  2  0  0  0  0
 62 65  1  0  0  0  0
 65 66  1  0  0  0  0
 65 95  2  0  0  0  0
 66 67  2  0  0  0  0
 66169  1  0  0  0  0
 67 68  1  0  0  0  0
 67170  1  0  0  0  0
 68 69  1  0  0  0  0
 68 87  2  0  0  0  0
 69 70  1  0  0  0  0
 69171  1  0  0  0  0
 70 71  1  0  0  0  0
 70 79  1  0  0  0  0
 70172  1  0  0  0  0
 71 72  1  0  0  0  0
 71173  1  0  0  0  0
 71174  1  0  0  0  0
 72 73  1  0  0  0  0
 72175  1  0  0  0  0
 72176  1  0  0  0  0
 73 74  1  0  0  0  0
 73 78  1  0  0  0  0
 73177  1  0  0  0  0
 74 75  1  0  0  0  0
 74178  1  0  0  0  0
 74179  1  0  0  0  0
 75 76  1  0  0  0  0
 75180  1  0  0  0  0
 75181  1  0  0  0  0
 76 77  1  0  0  0  0
 77 78  1  0  0  0  0
 77182  1  0  0  0  0
 77183  1  0  0  0  0
 78184  1  0  0  0  0
 78185  1  0  0  0  0
 79 80  1  0  0  0  0
 79186  1  0  0  0  0
 79187  1  0  0  0  0
 80 81  1  0  0  0  0
 81 82  1  0  0  0  0
 81 86  2  0  0  0  0
 82 83  2  0  0  0  0
 82188  1  0  0  0  0
 83 84  1  0  0  0  0
 83189  1  0  0  0  0
 84 85  2  0  0  0  0
 84190  1  0  0  0  0
 85 86  1  0  0  0  0
 85191  1  0  0  0  0
 86192  1  0  0  0  0
 87 88  1  0  0  0  0
 87 95  1  0  0  0  0
 88 89  2  0  0  0  0
 88 90  2  0  0  0  0
 88 91  1  0  0  0  0
 91 92  1  0  0  0  0
 91 93  1  0  0  0  0
 91 94  1  0  0  0  0
 95193  1  0  0  0  0
 96 97  1  0  0  0  0
 96194  1  0  0  0  0
 97195  1  0  0  0  0
 98 99  1  0  0  0  0
 98196  1  0  0  0  0
 98197  1  0  0  0  0
 99198  1  0  0  0  0
 99199  1  0  0  0  0
100200  1  0  0  0  0
100201  1  0  0  0  0
101102  1  0  0  0  0
101202  1  0  0  0  0
101203  1  0  0  0  0
102204  1  0  0  0  0
102205  1  0  0  0  0
103104  1  0  0  0  0
103105  1  0  0  0  0
103106  1  0  0  0  0
104206  1  0  0  0  0
104207  1  0  0  0  0
104208  1  0  0  0  0
105209  1  0  0  0  0
105210  1  0  0  0  0
105211  1  0  0  0  0
106212  1  0  0  0  0
106213  1  0  0  0  0
106214  1  0  0  0  0
107108  1  0  0  0  0
107215  1  0  0  0  0
108216  1  0  0  0  0
109110  1  0  0  0  0
110111  2  0  0  0  0
110217  1  0  0  0  0
M  CHG  1  35   1
M  CHG  1  51   1
M  CHG  1  73   1
M  END
>  <Compound ID>
3215

>  <Uniprot>
Q07817

>  <Target>
BCL-xL

>  <E3 ligase>
VHL

>  <Article DOI>
10.1038/s41467-021-27210-x

>  <Molecular Weight>
1627.496

>  <Exact Mass>
1625.6362

>  <XLogP3>
11.77

>  <Heavy Atom Count>
111

>  <Ring Count>
11

>  <Hydrogen Bond Acceptor Count>
19

>  <Hydrogen Bond Donor Count>
5

>  <Rotatable Bond Count>
30

>  <Topological Polar Surface Area>
263.54001

>  <Molecular Formula>
C81H103ClF3N11O11S4

>  <InChI>
InChI=1S/C81H103ClF3N11O11S4/c1-55(57-17-19-59(20-18-57)74-56(2)86-54-109-74)87-77(101)70-47-65(97)51-96(70)78(102)75(79(3,4)5)89-72(98)15-11-8-12-16-73(99)95-41-37-93(38-42-95)53-80(6)33-31-68(58-21-25-62(82)26-22-58)61(49-80)50-92-35-39-94(40-36-92)64-27-23-60(24-28-64)76(100)90-111(105,106)67-29-30-69(71(48-67)110(103,104)81(83,84)85)88-63(32-34-91-43-45-107-46-44-91)52-108-66-13-9-7-10-14-66/h7,9-10,13-14,17-30,48,54-55,63,65,70,75,88,97H,8,11-12,15-16,31-47,49-53H2,1-6H3,(H,87,101)(H,89,98)(H,90,100)/t55-,63+,65+,70-,75+,80?/m0/s1

>  <InChI Key>
XXWWYTHQXVIKLW-WGWDJEQESA-N

>  <DC50 (nM)>
12.8

>  <Assay (DC50/Dmax)>
Degradation of BCL-xL in 293T cells after 16 h treatment

>  <Name>
PPC7

>  <Dmax (%)>
85

$$$$
3216
  MOE2018           3D

220230  0  0  1  0  0  0  0  0999 V2000
   18.5450  -34.9130   -5.4920 C   0  0  0  0  0  0  0  0  0  0  0  0
   17.2630  -34.1480   -5.7200 C   0  0  0  0  0  0  0  0  0  0  0  0
   16.4430  -33.6630   -4.7320 C   0  0  0  0  0  0  0  0  0  0  0  0
   16.5990  -33.7250   -3.2840 C   0  0  0  0  0  0  0  0  0  0  0  0
   17.8100  -33.3870   -2.6710 C   0  0  0  0  0  0  0  0  0  0  0  0
   17.9520  -33.4480   -1.2890 C   0  0  0  0  0  0  0  0  0  0  0  0
   16.8800  -33.8330   -0.4820 C   0  0  0  0  0  0  0  0  0  0  0  0
   17.0630  -33.8810    1.0290 C   0  0  2  0  0  0  0  0  0  0  0  0
   17.0270  -35.3490    1.4660 C   0  0  0  0  0  0  0  0  0  0  0  0
   15.9380  -33.2370    1.6840 N   0  0  0  0  0  0  0  0  0  0  0  0
   15.5840  -31.9540    1.6430 C   0  0  0  0  0  0  0  0  0  0  0  0
   14.6940  -31.6050    2.4080 O   0  0  0  0  0  0  0  0  0  0  0  0
   16.3100  -30.9220    0.7210 C   0  0  2  0  0  0  0  0  0  0  0  0
   17.6680  -30.5150    1.3160 C   0  0  0  0  0  0  0  0  0  0  0  0
   17.8450  -29.0500    0.9320 C   0  0  1  0  0  0  0  0  0  0  0  0
   18.3880  -28.9810   -0.3710 O   0  0  0  0  0  0  0  0  0  0  0  0
   16.4090  -28.5310    0.9600 C   0  0  0  0  0  0  0  0  0  0  0  0
   15.5960  -29.6530    0.5110 N   0  0  0  0  0  0  0  0  0  0  0  0
   14.3370  -29.4920    0.0530 C   0  0  0  0  0  0  0  0  0  0  0  0
   13.8060  -28.3850    0.1460 O   0  0  0  0  0  0  0  0  0  0  0  0
   13.5570  -30.6760   -0.6010 C   0  0  1  0  0  0  0  0  0  0  0  0
   12.3520  -30.9720    0.1830 N   0  0  0  0  0  0  0  0  0  0  0  0
   12.0180  -32.1920    0.5930 C   0  0  0  0  0  0  0  0  0  0  0  0
   12.5740  -33.2040    0.1790 O   0  0  0  0  0  0  0  0  0  0  0  0
   10.9180  -32.2880    1.6420 C   0  0  0  0  0  0  0  0  0  0  0  0
    9.5300  -31.8860    1.1090 C   0  0  0  0  0  0  0  0  0  0  0  0
    8.4970  -31.9200    2.2440 C   0  0  0  0  0  0  0  0  0  0  0  0
    7.1190  -31.4430    1.7650 C   0  0  0  0  0  0  0  0  0  0  0  0
    6.1510  -31.3750    2.9550 C   0  0  0  0  0  0  0  0  0  0  0  0
    4.7810  -30.7890    2.5600 C   0  0  0  0  0  0  0  0  0  0  0  0
    3.8450  -30.5550    3.7570 C   0  0  0  0  0  0  0  0  0  0  0  0
    4.1360  -31.0290    4.8480 O   0  0  0  0  0  0  0  0  0  0  0  0
    2.7260  -29.8080    3.6140 N   0  0  0  0  0  0  0  0  0  0  0  0
    2.2810  -29.2380    2.3110 C   0  0  0  0  0  0  0  0  0  0  0  0
    0.7370  -29.3730    2.2350 C   0  0  0  0  0  0  0  0  0  0  0  0
    0.1540  -28.6800    3.4210 N   0  3  0  0  0  0  0  0  0  0  0  0
   -1.3430  -28.4870    3.3370 C   0  0  0  0  0  0  0  0  0  0  0  0
   -2.2560  -29.6890    2.8620 C   0  0  2  0  0  0  0  0  0  0  0  0
   -1.9580  -31.0130    3.6010 C   0  0  0  0  0  0  0  0  0  0  0  0
   -2.2220  -29.9790    1.3390 C   0  0  0  0  0  0  0  0  0  0  0  0
   -2.4320  -28.6760    0.5390 C   0  0  0  0  0  0  0  0  0  0  0  0
   -3.6140  -27.8940    1.1040 C   0  0  0  0  0  0  0  0  0  0  0  0
   -4.0810  -26.8100    0.2470 C   0  0  0  0  0  0  0  0  0  0  0  0
   -3.9400  -25.4720    0.6410 C   0  0  0  0  0  0  0  0  0  0  0  0
   -4.4400  -24.4450   -0.1500 C   0  0  0  0  0  0  0  0  0  0  0  0
   -5.0830  -24.7420   -1.3520 C   0  0  0  0  0  0  0  0  0  0  0  0
   -5.7360  -23.4670   -2.3230 Cl  0  0  0  0  0  0  0  0  0  0  0  0
   -5.2070  -26.0680   -1.7690 C   0  0  0  0  0  0  0  0  0  0  0  0
   -4.7050  -27.0930   -0.9760 C   0  0  0  0  0  0  0  0  0  0  0  0
   -4.1830  -28.1660    2.3070 C   0  0  0  0  0  0  0  0  0  0  0  0
   -5.3860  -27.3910    2.8260 C   0  0  0  0  0  0  0  0  0  0  0  0
   -6.4330  -27.7830    1.8930 N   0  3  0  0  0  0  0  0  0  0  0  0
   -7.2120  -26.5530    1.5140 C   0  0  0  0  0  0  0  0  0  0  0  0
   -8.2650  -26.9460    0.4490 C   0  0  0  0  0  0  0  0  0  0  0  0
   -9.1360  -27.9600    1.0880 N   0  0  0  0  0  0  0  0  0  0  0  0
  -10.4410  -28.1230    0.6090 C   0  0  0  0  0  0  0  0  0  0  0  0
  -10.7780  -27.8230   -0.7170 C   0  0  0  0  0  0  0  0  0  0  0  0
  -12.0890  -27.9770   -1.1470 C   0  0  0  0  0  0  0  0  0  0  0  0
  -13.0920  -28.4280   -0.2680 C   0  0  0  0  0  0  0  0  0  0  0  0
  -14.4830  -28.5930   -0.6990 C   0  0  0  0  0  0  0  0  0  0  0  0
  -15.4170  -28.8830    0.0300 O   0  0  0  0  0  0  0  0  0  0  0  0
  -14.8590  -28.4330   -1.9730 N   0  0  0  0  0  0  0  0  0  0  0  0
  -15.3740  -26.8990   -2.2680 S   0  0  0  0  0  0  0  0  0  0  0  0
  -15.3070  -26.6870   -3.6630 O   0  0  0  0  0  0  0  0  0  0  0  0
  -14.6240  -26.0020   -1.4680 O   0  0  0  0  0  0  0  0  0  0  0  0
  -17.1040  -26.8440   -1.7410 C   0  0  0  0  0  0  0  0  0  0  0  0
  -17.4350  -26.4510   -0.4440 C   0  0  0  0  0  0  0  0  0  0  0  0
  -18.7610  -26.3360   -0.0590 C   0  0  0  0  0  0  0  0  0  0  0  0
  -19.7870  -26.5940   -0.9690 C   0  0  0  0  0  0  0  0  0  0  0  0
  -21.0830  -26.3620   -0.4840 N   0  0  0  0  0  0  0  0  0  0  0  0
  -21.7760  -25.0900   -0.7770 C   0  0  2  0  0  0  0  0  0  0  0  0
  -20.9050  -23.9130   -0.3010 C   0  0  0  0  0  0  0  0  0  0  0  0
  -21.4910  -22.6480   -0.9490 C   0  0  0  0  0  0  0  0  0  0  0  0
  -20.4550  -21.6090   -0.7950 N   0  3  0  0  0  0  0  0  0  0  0  0
  -21.1240  -20.2720   -0.8880 C   0  0  0  0  0  0  0  0  0  0  0  0
  -20.0310  -19.1870   -0.7280 C   0  0  0  0  0  0  0  0  0  0  0  0
  -19.1020  -19.3720   -1.7930 O   0  0  0  0  0  0  0  0  0  0  0  0
  -18.4160  -20.6220   -1.7730 C   0  0  0  0  0  0  0  0  0  0  0  0
  -19.4890  -21.7220   -1.9460 C   0  0  0  0  0  0  0  0  0  0  0  0
  -23.1280  -25.1640   -0.0450 C   0  0  0  0  0  0  0  0  0  0  0  0
  -24.0940  -26.3950   -0.9890 S   0  0  0  0  0  0  0  0  0  0  0  0
  -25.2140  -27.0980    0.1550 C   0  0  0  0  0  0  0  0  0  0  0  0
  -25.6830  -28.3950   -0.0790 C   0  0  0  0  0  0  0  0  0  0  0  0
  -26.5690  -28.9920    0.8100 C   0  0  0  0  0  0  0  0  0  0  0  0
  -27.0000  -28.3000    1.9380 C   0  0  0  0  0  0  0  0  0  0  0  0
  -26.5450  -27.0050    2.1720 C   0  0  0  0  0  0  0  0  0  0  0  0
  -25.6590  -26.4020    1.2870 C   0  0  0  0  0  0  0  0  0  0  0  0
  -19.4870  -27.0510   -2.2680 C   0  0  0  0  0  0  0  0  0  0  0  0
  -20.7480  -27.4940   -3.4890 S   0  0  0  0  0  0  0  0  0  0  0  0
  -21.6960  -26.4340   -3.5740 O   0  0  0  0  0  0  0  0  0  0  0  0
  -20.0820  -27.8010   -4.7110 O   0  0  0  0  0  0  0  0  0  0  0  0
  -21.5360  -29.0660   -2.7710 C   0  0  0  0  0  0  0  0  0  0  0  0
  -22.1020  -28.8950   -1.5540 F   0  0  0  0  0  0  0  0  0  0  0  0
  -22.5160  -29.6050   -3.5310 F   0  0  0  0  0  0  0  0  0  0  0  0
  -20.6510  -30.0750   -2.5820 F   0  0  0  0  0  0  0  0  0  0  0  0
  -18.1380  -27.1440   -2.6350 C   0  0  0  0  0  0  0  0  0  0  0  0
  -12.7320  -28.7270    1.0570 C   0  0  0  0  0  0  0  0  0  0  0  0
  -11.4230  -28.5800    1.4920 C   0  0  0  0  0  0  0  0  0  0  0  0
   -8.4440  -29.1940    1.5300 C   0  0  0  0  0  0  0  0  0  0  0  0
   -7.3660  -28.7550    2.5560 C   0  0  0  0  0  0  0  0  0  0  0  0
   -3.7230  -29.3100    3.2080 C   0  0  0  0  0  0  0  0  0  0  0  0
    0.5190  -29.4660    4.6430 C   0  0  0  0  0  0  0  0  0  0  0  0
    2.0420  -29.3160    4.8500 C   0  0  0  0  0  0  0  0  0  0  0  0
   13.2190  -30.4490   -2.1140 C   0  0  0  0  0  0  0  0  0  0  0  0
   14.5180  -30.1970   -2.9060 C   0  0  0  0  0  0  0  0  0  0  0  0
   12.2550  -29.2750   -2.3870 C   0  0  0  0  0  0  0  0  0  0  0  0
   12.5610  -31.7050   -2.7220 C   0  0  0  0  0  0  0  0  0  0  0  0
   15.6650  -34.1620   -1.0870 C   0  0  0  0  0  0  0  0  0  0  0  0
   15.5310  -34.1150   -2.4700 C   0  0  0  0  0  0  0  0  0  0  0  0
   15.0840  -32.8920   -5.4400 S   0  0  0  0  0  0  0  0  0  0  0  0
   15.7240  -33.2530   -6.9930 C   0  0  0  0  0  0  0  0  0  0  0  0
   16.8510  -33.9030   -6.9910 N   0  0  0  0  0  0  0  0  0  0  0  0
   18.7210  -35.0170   -4.4210 H   0  0  0  0  0  0  0  0  0  0  0  0
   19.3760  -34.3730   -5.9460 H   0  0  0  0  0  0  0  0  0  0  0  0
   18.4640  -35.9010   -5.9450 H   0  0  0  0  0  0  0  0  0  0  0  0
   18.6460  -33.0740   -3.2790 H   0  0  0  0  0  0  0  0  0  0  0  0
   18.8990  -33.1950   -0.8360 H   0  0  0  0  0  0  0  0  0  0  0  0
   18.0000  -33.3880    1.2900 H   0  0  0  0  0  0  0  0  0  0  0  0
   16.0720  -35.7900    1.1810 H   0  0  0  0  0  0  0  0  0  0  0  0
   17.1460  -35.4090    2.5480 H   0  0  0  0  0  0  0  0  0  0  0  0
   17.8380  -35.8930    0.9810 H   0  0  0  0  0  0  0  0  0  0  0  0
   15.3490  -33.8390    2.2420 H   0  0  0  0  0  0  0  0  0  0  0  0
   16.3860  -31.4530   -0.2280 H   0  0  0  0  0  0  0  0  0  0  0  0
   18.4690  -31.1210    0.8930 H   0  0  0  0  0  0  0  0  0  0  0  0
   17.6610  -30.6290    2.4000 H   0  0  0  0  0  0  0  0  0  0  0  0
   18.5130  -28.4820    1.5790 H   0  0  0  0  0  0  0  0  0  0  0  0
   17.8090  -29.4780   -0.9530 H   0  0  0  0  0  0  0  0  0  0  0  0
   16.2950  -27.6810    0.2870 H   0  0  0  0  0  0  0  0  0  0  0  0
   16.1280  -28.2340    1.9700 H   0  0  0  0  0  0  0  0  0  0  0  0
   14.2200  -31.5410   -0.5850 H   0  0  0  0  0  0  0  0  0  0  0  0
   11.7410  -30.2050    0.4250 H   0  0  0  0  0  0  0  0  0  0  0  0
   10.8670  -33.3170    1.9970 H   0  0  0  0  0  0  0  0  0  0  0  0
   11.1740  -31.6300    2.4720 H   0  0  0  0  0  0  0  0  0  0  0  0
    9.5800  -30.8780    0.6980 H   0  0  0  0  0  0  0  0  0  0  0  0
    9.2290  -32.5830    0.3270 H   0  0  0  0  0  0  0  0  0  0  0  0
    8.4100  -32.9420    2.6130 H   0  0  0  0  0  0  0  0  0  0  0  0
    8.8360  -31.2700    3.0510 H   0  0  0  0  0  0  0  0  0  0  0  0
    6.7320  -32.1410    1.0230 H   0  0  0  0  0  0  0  0  0  0  0  0
    7.2140  -30.4530    1.3180 H   0  0  0  0  0  0  0  0  0  0  0  0
    6.5910  -30.7470    3.7300 H   0  0  0  0  0  0  0  0  0  0  0  0
    6.0030  -32.3820    3.3450 H   0  0  0  0  0  0  0  0  0  0  0  0
    4.2950  -31.4810    1.8720 H   0  0  0  0  0  0  0  0  0  0  0  0
    4.9450  -29.8350    2.0590 H   0  0  0  0  0  0  0  0  0  0  0  0
    2.5650  -28.1870    2.2500 H   0  0  0  0  0  0  0  0  0  0  0  0
    2.7420  -29.7870    1.4900 H   0  0  0  0  0  0  0  0  0  0  0  0
    0.4570  -30.4260    2.2470 H   0  0  0  0  0  0  0  0  0  0  0  0
    0.3700  -28.9100    1.3190 H   0  0  0  0  0  0  0  0  0  0  0  0
    0.5390  -27.7470    3.4590 H   0  0  0  0  0  0  0  0  0  0  0  0
   -1.6830  -28.2040    4.3330 H   0  0  0  0  0  0  0  0  0  0  0  0
   -1.5190  -27.6630    2.6460 H   0  0  0  0  0  0  0  0  0  0  0  0
   -2.6190  -31.7950    3.2270 H   0  0  0  0  0  0  0  0  0  0  0  0
   -2.1240  -30.8780    4.6700 H   0  0  0  0  0  0  0  0  0  0  0  0
   -0.9210  -31.3000    3.4280 H   0  0  0  0  0  0  0  0  0  0  0  0
   -1.2560  -30.4100    1.0770 H   0  0  0  0  0  0  0  0  0  0  0  0
   -3.0140  -30.6850    1.0900 H   0  0  0  0  0  0  0  0  0  0  0  0
   -2.6290  -28.9220   -0.5040 H   0  0  0  0  0  0  0  0  0  0  0  0
   -1.5320  -28.0650    0.6040 H   0  0  0  0  0  0  0  0  0  0  0  0
   -3.4380  -25.2370    1.5680 H   0  0  0  0  0  0  0  0  0  0  0  0
   -4.3310  -23.4180    0.1650 H   0  0  0  0  0  0  0  0  0  0  0  0
   -5.6920  -26.2970   -2.7060 H   0  0  0  0  0  0  0  0  0  0  0  0
   -4.7970  -28.1180   -1.3050 H   0  0  0  0  0  0  0  0  0  0  0  0
   -5.2080  -26.3160    2.7910 H   0  0  0  0  0  0  0  0  0  0  0  0
   -5.6350  -27.6850    3.8460 H   0  0  0  0  0  0  0  0  0  0  0  0
   -6.0210  -28.2140    1.0780 H   0  0  0  0  0  0  0  0  0  0  0  0
   -7.7120  -26.1490    2.3940 H   0  0  0  0  0  0  0  0  0  0  0  0
   -6.5370  -25.8020    1.1040 H   0  0  0  0  0  0  0  0  0  0  0  0
   -7.7760  -27.3670   -0.4290 H   0  0  0  0  0  0  0  0  0  0  0  0
   -8.8510  -26.0750    0.1560 H   0  0  0  0  0  0  0  0  0  0  0  0
  -10.0200  -27.4730   -1.4030 H   0  0  0  0  0  0  0  0  0  0  0  0
  -12.3430  -27.7470   -2.1710 H   0  0  0  0  0  0  0  0  0  0  0  0
  -14.8300  -29.1650   -2.6690 H   0  0  0  0  0  0  0  0  0  0  0  0
  -16.6510  -26.2340    0.2660 H   0  0  0  0  0  0  0  0  0  0  0  0
  -19.0020  -26.0450    0.9530 H   0  0  0  0  0  0  0  0  0  0  0  0
  -21.5460  -27.0690    0.0690 H   0  0  0  0  0  0  0  0  0  0  0  0
  -21.9450  -24.9340   -1.8420 H   0  0  0  0  0  0  0  0  0  0  0  0
  -20.9420  -23.8320    0.7850 H   0  0  0  0  0  0  0  0  0  0  0  0
  -19.8720  -24.0560   -0.6190 H   0  0  0  0  0  0  0  0  0  0  0  0
  -22.4080  -22.3500   -0.4410 H   0  0  0  0  0  0  0  0  0  0  0  0
  -21.7010  -22.8230   -2.0040 H   0  0  0  0  0  0  0  0  0  0  0  0
  -19.9740  -21.7160    0.0870 H   0  0  0  0  0  0  0  0  0  0  0  0
  -21.6120  -20.1680   -1.8570 H   0  0  0  0  0  0  0  0  0  0  0  0
  -21.8650  -20.1720   -0.0950 H   0  0  0  0  0  0  0  0  0  0  0  0
  -19.5280  -19.3010    0.2320 H   0  0  0  0  0  0  0  0  0  0  0  0
  -20.4770  -18.1940   -0.7880 H   0  0  0  0  0  0  0  0  0  0  0  0
  -17.6960  -20.6680   -2.5900 H   0  0  0  0  0  0  0  0  0  0  0  0
  -17.8970  -20.7500   -0.8230 H   0  0  0  0  0  0  0  0  0  0  0  0
  -19.0170  -22.7050   -1.9390 H   0  0  0  0  0  0  0  0  0  0  0  0
  -20.0170  -21.5800   -2.8890 H   0  0  0  0  0  0  0  0  0  0  0  0
  -23.6250  -24.1940   -0.0550 H   0  0  0  0  0  0  0  0  0  0  0  0
  -22.9900  -25.4910    0.9860 H   0  0  0  0  0  0  0  0  0  0  0  0
  -25.3550  -28.9350   -0.9550 H   0  0  0  0  0  0  0  0  0  0  0  0
  -26.9240  -29.9950    0.6250 H   0  0  0  0  0  0  0  0  0  0  0  0
  -27.6860  -28.7660    2.6300 H   0  0  0  0  0  0  0  0  0  0  0  0
  -26.8820  -26.4670    3.0450 H   0  0  0  0  0  0  0  0  0  0  0  0
  -25.3130  -25.3960    1.4720 H   0  0  0  0  0  0  0  0  0  0  0  0
  -17.8890  -27.4570   -3.6380 H   0  0  0  0  0  0  0  0  0  0  0  0
  -13.4860  -29.0760    1.7470 H   0  0  0  0  0  0  0  0  0  0  0  0
  -11.1630  -28.8190    2.5130 H   0  0  0  0  0  0  0  0  0  0  0  0
   -9.1540  -29.8760    1.9990 H   0  0  0  0  0  0  0  0  0  0  0  0
   -7.9740  -29.6870    0.6790 H   0  0  0  0  0  0  0  0  0  0  0  0
   -6.8060  -29.6270    2.8950 H   0  0  0  0  0  0  0  0  0  0  0  0
   -7.8460  -28.2770    3.4100 H   0  0  0  0  0  0  0  0  0  0  0  0
   -3.7800  -28.9960    4.2500 H   0  0  0  0  0  0  0  0  0  0  0  0
   -4.3670  -30.1750    3.0530 H   0  0  0  0  0  0  0  0  0  0  0  0
   -0.0150  -29.0770    5.5100 H   0  0  0  0  0  0  0  0  0  0  0  0
    0.2640  -30.5160    4.5010 H   0  0  0  0  0  0  0  0  0  0  0  0
    2.3590  -29.9080    5.7090 H   0  0  0  0  0  0  0  0  0  0  0  0
    2.2910  -28.2680    5.0190 H   0  0  0  0  0  0  0  0  0  0  0  0
   14.2780  -30.0400   -3.9570 H   0  0  0  0  0  0  0  0  0  0  0  0
   15.1760  -31.0600   -2.8090 H   0  0  0  0  0  0  0  0  0  0  0  0
   15.0180  -29.3130   -2.5110 H   0  0  0  0  0  0  0  0  0  0  0  0
   12.0780  -29.1920   -3.4590 H   0  0  0  0  0  0  0  0  0  0  0  0
   12.6970  -28.3490   -2.0190 H   0  0  0  0  0  0  0  0  0  0  0  0
   11.3100  -29.4550   -1.8750 H   0  0  0  0  0  0  0  0  0  0  0  0
   12.3350  -31.5240   -3.7730 H   0  0  0  0  0  0  0  0  0  0  0  0
   11.6390  -31.9280   -2.1850 H   0  0  0  0  0  0  0  0  0  0  0  0
   13.2440  -32.5500   -2.6370 H   0  0  0  0  0  0  0  0  0  0  0  0
   14.8240  -34.4550   -0.4760 H   0  0  0  0  0  0  0  0  0  0  0  0
   14.5880  -34.3840   -2.9220 H   0  0  0  0  0  0  0  0  0  0  0  0
   15.2260  -32.9610   -7.9060 H   0  0  0  0  0  0  0  0  0  0  0  0
  1  2  1  0  0  0  0
  1113  1  0  0  0  0
  1114  1  0  0  0  0
  1115  1  0  0  0  0
  2  3  2  0  0  0  0
  2112  1  0  0  0  0
  3  4  1  0  0  0  0
  3110  1  0  0  0  0
  4  5  1  0  0  0  0
  4109  2  0  0  0  0
  5  6  2  0  0  0  0
  5116  1  0  0  0  0
  6  7  1  0  0  0  0
  6117  1  0  0  0  0
  7  8  1  0  0  0  0
  7108  2  0  0  0  0
  8  9  1  0  0  0  0
  8 10  1  0  0  0  0
  8118  1  0  0  0  0
  9119  1  0  0  0  0
  9120  1  0  0  0  0
  9121  1  0  0  0  0
 10 11  1  0  0  0  0
 10122  1  0  0  0  0
 11 12  2  0  0  0  0
 11 13  1  0  0  0  0
 13 14  1  0  0  0  0
 13 18  1  0  0  0  0
 13123  1  0  0  0  0
 14 15  1  0  0  0  0
 14124  1  0  0  0  0
 14125  1  0  0  0  0
 15 16  1  0  0  0  0
 15 17  1  0  0  0  0
 15126  1  0  0  0  0
 16127  1  0  0  0  0
 17 18  1  0  0  0  0
 17128  1  0  0  0  0
 17129  1  0  0  0  0
 18 19  1  0  0  0  0
 19 20  2  0  0  0  0
 19 21  1  0  0  0  0
 21 22  1  0  0  0  0
 21104  1  0  0  0  0
 21130  1  0  0  0  0
 22 23  1  0  0  0  0
 22131  1  0  0  0  0
 23 24  2  0  0  0  0
 23 25  1  0  0  0  0
 25 26  1  0  0  0  0
 25132  1  0  0  0  0
 25133  1  0  0  0  0
 26 27  1  0  0  0  0
 26134  1  0  0  0  0
 26135  1  0  0  0  0
 27 28  1  0  0  0  0
 27136  1  0  0  0  0
 27137  1  0  0  0  0
 28 29  1  0  0  0  0
 28138  1  0  0  0  0
 28139  1  0  0  0  0
 29 30  1  0  0  0  0
 29140  1  0  0  0  0
 29141  1  0  0  0  0
 30 31  1  0  0  0  0
 30142  1  0  0  0  0
 30143  1  0  0  0  0
 31 32  2  0  0  0  0
 31 33  1  0  0  0  0
 33 34  1  0  0  0  0
 33103  1  0  0  0  0
 34 35  1  0  0  0  0
 34144  1  0  0  0  0
 34145  1  0  0  0  0
 35 36  1  0  0  0  0
 35146  1  0  0  0  0
 35147  1  0  0  0  0
 36 37  1  0  0  0  0
 36102  1  0  0  0  0
 36148  1  0  0  0  0
 37 38  1  0  0  0  0
 37149  1  0  0  0  0
 37150  1  0  0  0  0
 38 39  1  0  0  0  0
 38 40  1  0  0  0  0
 38101  1  0  0  0  0
 39151  1  0  0  0  0
 39152  1  0  0  0  0
 39153  1  0  0  0  0
 40 41  1  0  0  0  0
 40154  1  0  0  0  0
 40155  1  0  0  0  0
 41 42  1  0  0  0  0
 41156  1  0  0  0  0
 41157  1  0  0  0  0
 42 43  1  0  0  0  0
 42 50  2  0  0  0  0
 43 44  1  0  0  0  0
 43 49  2  0  0  0  0
 44 45  2  0  0  0  0
 44158  1  0  0  0  0
 45 46  1  0  0  0  0
 45159  1  0  0  0  0
 46 47  1  0  0  0  0
 46 48  2  0  0  0  0
 48 49  1  0  0  0  0
 48160  1  0  0  0  0
 49161  1  0  0  0  0
 50 51  1  0  0  0  0
 50101  1  0  0  0  0
 51 52  1  0  0  0  0
 51162  1  0  0  0  0
 51163  1  0  0  0  0
 52 53  1  0  0  0  0
 52100  1  0  0  0  0
 52164  1  0  0  0  0
 53 54  1  0  0  0  0
 53165  1  0  0  0  0
 53166  1  0  0  0  0
 54 55  1  0  0  0  0
 54167  1  0  0  0  0
 54168  1  0  0  0  0
 55 56  1  0  0  0  0
 55 99  1  0  0  0  0
 56 57  1  0  0  0  0
 56 98  2  0  0  0  0
 57 58  2  0  0  0  0
 57169  1  0  0  0  0
 58 59  1  0  0  0  0
 58170  1  0  0  0  0
 59 60  1  0  0  0  0
 59 97  2  0  0  0  0
 60 61  2  0  0  0  0
 60 62  1  0  0  0  0
 62 63  1  0  0  0  0
 62171  1  0  0  0  0
 63 64  2  0  0  0  0
 63 65  2  0  0  0  0
 63 66  1  0  0  0  0
 66 67  1  0  0  0  0
 66 96  2  0  0  0  0
 67 68  2  0  0  0  0
 67172  1  0  0  0  0
 68 69  1  0  0  0  0
 68173  1  0  0  0  0
 69 70  1  0  0  0  0
 69 88  2  0  0  0  0
 70 71  1  0  0  0  0
 70174  1  0  0  0  0
 71 72  1  0  0  0  0
 71 80  1  0  0  0  0
 71175  1  0  0  0  0
 72 73  1  0  0  0  0
 72176  1  0  0  0  0
 72177  1  0  0  0  0
 73 74  1  0  0  0  0
 73178  1  0  0  0  0
 73179  1  0  0  0  0
 74 75  1  0  0  0  0
 74 79  1  0  0  0  0
 74180  1  0  0  0  0
 75 76  1  0  0  0  0
 75181  1  0  0  0  0
 75182  1  0  0  0  0
 76 77  1  0  0  0  0
 76183  1  0  0  0  0
 76184  1  0  0  0  0
 77 78  1  0  0  0  0
 78 79  1  0  0  0  0
 78185  1  0  0  0  0
 78186  1  0  0  0  0
 79187  1  0  0  0  0
 79188  1  0  0  0  0
 80 81  1  0  0  0  0
 80189  1  0  0  0  0
 80190  1  0  0  0  0
 81 82  1  0  0  0  0
 82 83  1  0  0  0  0
 82 87  2  0  0  0  0
 83 84  2  0  0  0  0
 83191  1  0  0  0  0
 84 85  1  0  0  0  0
 84192  1  0  0  0  0
 85 86  2  0  0  0  0
 85193  1  0  0  0  0
 86 87  1  0  0  0  0
 86194  1  0  0  0  0
 87195  1  0  0  0  0
 88 89  1  0  0  0  0
 88 96  1  0  0  0  0
 89 90  2  0  0  0  0
 89 91  2  0  0  0  0
 89 92  1  0  0  0  0
 92 93  1  0  0  0  0
 92 94  1  0  0  0  0
 92 95  1  0  0  0  0
 96196  1  0  0  0  0
 97 98  1  0  0  0  0
 97197  1  0  0  0  0
 98198  1  0  0  0  0
 99100  1  0  0  0  0
 99199  1  0  0  0  0
 99200  1  0  0  0  0
100201  1  0  0  0  0
100202  1  0  0  0  0
101203  1  0  0  0  0
101204  1  0  0  0  0
102103  1  0  0  0  0
102205  1  0  0  0  0
102206  1  0  0  0  0
103207  1  0  0  0  0
103208  1  0  0  0  0
104105  1  0  0  0  0
104106  1  0  0  0  0
104107  1  0  0  0  0
105209  1  0  0  0  0
105210  1  0  0  0  0
105211  1  0  0  0  0
106212  1  0  0  0  0
106213  1  0  0  0  0
106214  1  0  0  0  0
107215  1  0  0  0  0
107216  1  0  0  0  0
107217  1  0  0  0  0
108109  1  0  0  0  0
108218  1  0  0  0  0
109219  1  0  0  0  0
110111  1  0  0  0  0
111112  2  0  0  0  0
111220  1  0  0  0  0
M  CHG  1  36   1
M  CHG  1  52   1
M  CHG  1  74   1
M  END
>  <Compound ID>
3216

>  <Uniprot>
Q07817

>  <Target>
BCL-xL

>  <E3 ligase>
VHL

>  <Article DOI>
10.1038/s41467-021-27210-x

>  <Molecular Weight>
1641.5229

>  <Exact Mass>
1639.6519

>  <XLogP3>
12.31

>  <Heavy Atom Count>
112

>  <Ring Count>
11

>  <Hydrogen Bond Acceptor Count>
19

>  <Hydrogen Bond Donor Count>
5

>  <Rotatable Bond Count>
31

>  <Topological Polar Surface Area>
263.54001

>  <Molecular Formula>
C82H105ClF3N11O11S4

>  <InChI>
InChI=1S/C82H105ClF3N11O11S4/c1-56(58-18-20-60(21-19-58)75-57(2)87-55-110-75)88-78(102)71-48-66(98)52-97(71)79(103)76(80(3,4)5)90-73(99)16-12-7-8-13-17-74(100)96-42-38-94(39-43-96)54-81(6)34-32-69(59-22-26-63(83)27-23-59)62(50-81)51-93-36-40-95(41-37-93)65-28-24-61(25-29-65)77(101)91-112(106,107)68-30-31-70(72(49-68)111(104,105)82(84,85)86)89-64(33-35-92-44-46-108-47-45-92)53-109-67-14-10-9-11-15-67/h9-11,14-15,18-31,49,55-56,64,66,71,76,89,98H,7-8,12-13,16-17,32-48,50-54H2,1-6H3,(H,88,102)(H,90,99)(H,91,101)/t56-,64+,66+,71-,76+,81?/m0/s1

>  <InChI Key>
KQEMZZJSHJCPSI-KGENNJKMSA-N

>  <DC50 (nM)>
12.9

>  <Assay (DC50/Dmax)>
Degradation of BCL-xL in 293T cells after 16 h treatment

>  <Name>
PPC8

>  <Dmax (%)>
94

$$$$
3217
  MOE2018           3D

223233  0  0  1  0  0  0  0  0999 V2000
   37.8240   33.0510   -2.6590 C   0  0  0  0  0  0  0  0  0  0  0  0
   36.5010   33.7170   -2.9560 C   0  0  0  0  0  0  0  0  0  0  0  0
   35.4090   33.7130   -2.1240 C   0  0  0  0  0  0  0  0  0  0  0  0
   35.2370   33.0800   -0.8220 C   0  0  0  0  0  0  0  0  0  0  0  0
   35.6140   31.7490   -0.6120 C   0  0  0  0  0  0  0  0  0  0  0  0
   35.4300   31.1430    0.6260 C   0  0  0  0  0  0  0  0  0  0  0  0
   34.8590   31.8520    1.6870 C   0  0  0  0  0  0  0  0  0  0  0  0
   34.6150   31.2070    3.0440 C   0  0  2  0  0  0  0  0  0  0  0  0
   35.9530   30.7220    3.6170 C   0  0  0  0  0  0  0  0  0  0  0  0
   33.7980   30.0390    2.8010 N   0  0  0  0  0  0  0  0  0  0  0  0
   33.0120   29.4720    3.7120 C   0  0  0  0  0  0  0  0  0  0  0  0
   32.9400   29.9390    4.8460 O   0  0  0  0  0  0  0  0  0  0  0  0
   32.1700   28.2080    3.3650 C   0  0  2  0  0  0  0  0  0  0  0  0
   32.9600   26.9100    3.5030 C   0  0  0  0  0  0  0  0  0  0  0  0
   31.9590   25.8750    2.9970 C   0  0  1  0  0  0  0  0  0  0  0  0
   31.1760   25.4150    4.0830 O   0  0  0  0  0  0  0  0  0  0  0  0
   31.1100   26.6460    1.9730 C   0  0  0  0  0  0  0  0  0  0  0  0
   31.4690   28.0660    2.0720 N   0  0  0  0  0  0  0  0  0  0  0  0
   31.8470   28.6290    0.9080 C   0  0  0  0  0  0  0  0  0  0  0  0
   33.0370   28.6330    0.5950 O   0  0  0  0  0  0  0  0  0  0  0  0
   30.7610   29.0940   -0.1180 C   0  0  1  0  0  0  0  0  0  0  0  0
   29.4030   28.5880    0.1680 N   0  0  0  0  0  0  0  0  0  0  0  0
   28.9280   27.4470   -0.3190 C   0  0  0  0  0  0  0  0  0  0  0  0
   29.6260   26.6800   -0.9660 O   0  0  0  0  0  0  0  0  0  0  0  0
   27.4740   27.1060   -0.0200 C   0  0  0  0  0  0  0  0  0  0  0  0
   26.4870   28.0030   -0.7880 C   0  0  0  0  0  0  0  0  0  0  0  0
   25.0420   27.5330   -0.5730 C   0  0  0  0  0  0  0  0  0  0  0  0
   24.0590   28.4500   -1.3140 C   0  0  0  0  0  0  0  0  0  0  0  0
   22.6270   27.9090   -1.1990 C   0  0  0  0  0  0  0  0  0  0  0  0
   21.6380   28.8460   -1.9080 C   0  0  0  0  0  0  0  0  0  0  0  0
   20.2180   28.2500   -1.9120 C   0  0  0  0  0  0  0  0  0  0  0  0
   19.1680   29.1310   -2.6070 C   0  0  0  0  0  0  0  0  0  0  0  0
   19.4540   30.2800   -2.9170 O   0  0  0  0  0  0  0  0  0  0  0  0
   17.9310   28.6420   -2.8620 N   0  0  0  0  0  0  0  0  0  0  0  0
   17.4800   27.2760   -2.4830 C   0  0  0  0  0  0  0  0  0  0  0  0
   16.0880   27.4180   -1.8120 C   0  0  0  0  0  0  0  0  0  0  0  0
   15.1660   28.1020   -2.7750 N   0  3  0  0  0  0  0  0  0  0  0  0
   13.7140   28.0910   -2.3400 C   0  0  0  0  0  0  0  0  0  0  0  0
   13.3500   28.4180   -0.8380 C   0  0  2  0  0  0  0  0  0  0  0  0
   14.0330   29.7020   -0.3110 C   0  0  0  0  0  0  0  0  0  0  0  0
   13.7520   27.2180    0.0880 C   0  0  0  0  0  0  0  0  0  0  0  0
   12.6500   26.8730    1.1070 C   0  0  0  0  0  0  0  0  0  0  0  0
   11.4500   26.5130    0.2530 C   0  0  0  0  0  0  0  0  0  0  0  0
   10.8080   25.2270    0.5090 C   0  0  0  0  0  0  0  0  0  0  0  0
   10.6590   24.2770   -0.5110 C   0  0  0  0  0  0  0  0  0  0  0  0
   10.0120   23.0720   -0.2690 C   0  0  0  0  0  0  0  0  0  0  0  0
    9.5150   22.7920    1.0040 C   0  0  0  0  0  0  0  0  0  0  0  0
    8.6920   21.2980    1.3040 Cl  0  0  0  0  0  0  0  0  0  0  0  0
    9.6810   23.7160    2.0360 C   0  0  0  0  0  0  0  0  0  0  0  0
   10.3290   24.9200    1.7900 C   0  0  0  0  0  0  0  0  0  0  0  0
   11.0380   27.4010   -0.6780 C   0  0  0  0  0  0  0  0  0  0  0  0
    9.7990   27.1860   -1.5330 C   0  0  0  0  0  0  0  0  0  0  0  0
    8.7520   27.9550   -0.8560 N   0  3  0  0  0  0  0  0  0  0  0  0
    8.1880   27.1000    0.2560 C   0  0  0  0  0  0  0  0  0  0  0  0
    7.0520   27.8750    0.9780 C   0  0  0  0  0  0  0  0  0  0  0  0
    6.0230   28.1820   -0.0470 N   0  0  0  0  0  0  0  0  0  0  0  0
    4.8070   27.4660   -0.1490 C   0  0  0  0  0  0  0  0  0  0  0  0
    4.6700   26.1770    0.3900 C   0  0  0  0  0  0  0  0  0  0  0  0
    3.4690   25.4910    0.2570 C   0  0  0  0  0  0  0  0  0  0  0  0
    2.3760   26.0630   -0.4180 C   0  0  0  0  0  0  0  0  0  0  0  0
    1.1090   25.3430   -0.5990 C   0  0  0  0  0  0  0  0  0  0  0  0
    0.2220   25.6700   -1.3700 O   0  0  0  0  0  0  0  0  0  0  0  0
    0.8040   24.2420    0.0990 N   0  0  0  0  0  0  0  0  0  0  0  0
   -0.0240   24.6140    1.4740 S   0  0  0  0  0  0  0  0  0  0  0  0
    0.1210   23.5270    2.3650 O   0  0  0  0  0  0  0  0  0  0  0  0
    0.4240   25.8710    1.9460 O   0  0  0  0  0  0  0  0  0  0  0  0
   -1.7630   24.7560    0.9760 C   0  0  0  0  0  0  0  0  0  0  0  0
   -2.2480   25.9510    0.4390 C   0  0  0  0  0  0  0  0  0  0  0  0
   -3.5780   26.0770    0.0680 C   0  0  0  0  0  0  0  0  0  0  0  0
   -4.4630   25.0150    0.2630 C   0  0  0  0  0  0  0  0  0  0  0  0
   -5.8050   25.2280   -0.0750 N   0  0  0  0  0  0  0  0  0  0  0  0
   -6.6770   25.7080    1.0360 C   0  0  2  0  0  0  0  0  0  0  0  0
   -8.1210   25.6410    0.4960 C   0  0  0  0  0  0  0  0  0  0  0  0
   -8.5310   24.1680    0.5670 C   0  0  0  0  0  0  0  0  0  0  0  0
   -9.8800   24.0840   -0.0160 N   0  3  0  0  0  0  0  0  0  0  0  0
  -10.5290   22.8620    0.5540 C   0  0  0  0  0  0  0  0  0  0  0  0
  -11.9430   22.7460   -0.0640 C   0  0  0  0  0  0  0  0  0  0  0  0
  -11.7730   22.6300   -1.4750 O   0  0  0  0  0  0  0  0  0  0  0  0
  -11.1620   23.7600   -2.0930 C   0  0  0  0  0  0  0  0  0  0  0  0
   -9.7400   23.8860   -1.4970 C   0  0  0  0  0  0  0  0  0  0  0  0
   -6.2820   27.1540    1.4080 C   0  0  0  0  0  0  0  0  0  0  0  0
   -7.2950   27.6150    2.8600 S   0  0  0  0  0  0  0  0  0  0  0  0
   -6.9840   29.3120    3.1720 C   0  0  0  0  0  0  0  0  0  0  0  0
   -5.9630   30.0270    2.5260 C   0  0  0  0  0  0  0  0  0  0  0  0
   -5.7740   31.3770    2.8000 C   0  0  0  0  0  0  0  0  0  0  0  0
   -6.5890   32.0290    3.7210 C   0  0  0  0  0  0  0  0  0  0  0  0
   -7.5950   31.3230    4.3730 C   0  0  0  0  0  0  0  0  0  0  0  0
   -7.7910   29.9740    4.1040 C   0  0  0  0  0  0  0  0  0  0  0  0
   -3.9980   23.7860    0.7580 C   0  0  0  0  0  0  0  0  0  0  0  0
   -5.0620   22.3290    0.8380 S   0  0  0  0  0  0  0  0  0  0  0  0
   -4.3130   21.2680    1.4210 O   0  0  0  0  0  0  0  0  0  0  0  0
   -6.2790   22.6550    1.5170 O   0  0  0  0  0  0  0  0  0  0  0  0
   -5.4130   21.9470   -0.9920 C   0  0  0  0  0  0  0  0  0  0  0  0
   -6.4720   22.6340   -1.5200 F   0  0  0  0  0  0  0  0  0  0  0  0
   -5.7130   20.6530   -1.2410 F   0  0  0  0  0  0  0  0  0  0  0  0
   -4.3800   22.2270   -1.8210 F   0  0  0  0  0  0  0  0  0  0  0  0
   -2.6520   23.6860    1.1320 C   0  0  0  0  0  0  0  0  0  0  0  0
    2.5230   27.3610   -0.9340 C   0  0  0  0  0  0  0  0  0  0  0  0
    3.7140   28.0590   -0.7950 C   0  0  0  0  0  0  0  0  0  0  0  0
    6.5120   29.0120   -1.1770 C   0  0  0  0  0  0  0  0  0  0  0  0
    7.6490   28.2010   -1.8520 C   0  0  0  0  0  0  0  0  0  0  0  0
   11.8010   28.7120   -0.8160 C   0  0  0  0  0  0  0  0  0  0  0  0
   15.6480   29.5110   -2.9740 C   0  0  0  0  0  0  0  0  0  0  0  0
   17.0010   29.4370   -3.7170 C   0  0  0  0  0  0  0  0  0  0  0  0
   30.6910   30.6490   -0.2890 C   0  0  0  0  0  0  0  0  0  0  0  0
   30.3950   31.3740    1.0400 C   0  0  0  0  0  0  0  0  0  0  0  0
   32.0110   31.2140   -0.8460 C   0  0  0  0  0  0  0  0  0  0  0  0
   29.6030   31.0580   -1.3100 C   0  0  0  0  0  0  0  0  0  0  0  0
   34.4840   33.1800    1.4820 C   0  0  0  0  0  0  0  0  0  0  0  0
   34.6700   33.7850    0.2440 C   0  0  0  0  0  0  0  0  0  0  0  0
   34.1340   34.6070   -2.8450 S   0  0  0  0  0  0  0  0  0  0  0  0
   35.1460   34.8990   -4.2040 C   0  0  0  0  0  0  0  0  0  0  0  0
   36.3380   34.3830   -4.1280 N   0  0  0  0  0  0  0  0  0  0  0  0
   37.7760   32.5680   -1.6830 H   0  0  0  0  0  0  0  0  0  0  0  0
   38.6150   33.8010   -2.6550 H   0  0  0  0  0  0  0  0  0  0  0  0
   38.0350   32.3040   -3.4250 H   0  0  0  0  0  0  0  0  0  0  0  0
   36.0530   31.1850   -1.4220 H   0  0  0  0  0  0  0  0  0  0  0  0
   35.7310   30.1160    0.7690 H   0  0  0  0  0  0  0  0  0  0  0  0
   34.1460   31.9100    3.7330 H   0  0  0  0  0  0  0  0  0  0  0  0
   36.4130   30.0200    2.9210 H   0  0  0  0  0  0  0  0  0  0  0  0
   35.7810   30.2260    4.5720 H   0  0  0  0  0  0  0  0  0  0  0  0
   36.6160   31.5750    3.7650 H   0  0  0  0  0  0  0  0  0  0  0  0
   33.8260   29.6270    1.8790 H   0  0  0  0  0  0  0  0  0  0  0  0
   31.3950   28.3880    4.1100 H   0  0  0  0  0  0  0  0  0  0  0  0
   33.2340   26.7220    4.5410 H   0  0  0  0  0  0  0  0  0  0  0  0
   33.8590   26.9260    2.8870 H   0  0  0  0  0  0  0  0  0  0  0  0
   32.4220   24.9950    2.5510 H   0  0  0  0  0  0  0  0  0  0  0  0
   30.7610   26.1810    4.4870 H   0  0  0  0  0  0  0  0  0  0  0  0
   30.0510   26.5150    2.1950 H   0  0  0  0  0  0  0  0  0  0  0  0
   31.3180   26.2800    0.9680 H   0  0  0  0  0  0  0  0  0  0  0  0
   31.1020   28.6480   -1.0520 H   0  0  0  0  0  0  0  0  0  0  0  0
   28.8040   29.1390    0.7660 H   0  0  0  0  0  0  0  0  0  0  0  0
   27.2940   26.0680   -0.3000 H   0  0  0  0  0  0  0  0  0  0  0  0
   27.2990   27.2290    1.0490 H   0  0  0  0  0  0  0  0  0  0  0  0
   26.5860   29.0290   -0.4330 H   0  0  0  0  0  0  0  0  0  0  0  0
   26.7210   27.9630   -1.8520 H   0  0  0  0  0  0  0  0  0  0  0  0
   24.9360   26.5160   -0.9500 H   0  0  0  0  0  0  0  0  0  0  0  0
   24.8140   27.5510    0.4930 H   0  0  0  0  0  0  0  0  0  0  0  0
   24.3400   28.5010   -2.3660 H   0  0  0  0  0  0  0  0  0  0  0  0
   24.1010   29.4480   -0.8780 H   0  0  0  0  0  0  0  0  0  0  0  0
   22.3560   27.8320   -0.1460 H   0  0  0  0  0  0  0  0  0  0  0  0
   22.5790   26.9220   -1.6590 H   0  0  0  0  0  0  0  0  0  0  0  0
   21.9640   28.9960   -2.9370 H   0  0  0  0  0  0  0  0  0  0  0  0
   21.6210   29.8040   -1.3890 H   0  0  0  0  0  0  0  0  0  0  0  0
   19.9080   28.0990   -0.8780 H   0  0  0  0  0  0  0  0  0  0  0  0
   20.2520   27.2890   -2.4250 H   0  0  0  0  0  0  0  0  0  0  0  0
   17.4030   26.6490   -3.3710 H   0  0  0  0  0  0  0  0  0  0  0  0
   18.1870   26.8310   -1.7840 H   0  0  0  0  0  0  0  0  0  0  0  0
   16.1770   28.0120   -0.9020 H   0  0  0  0  0  0  0  0  0  0  0  0
   15.6960   26.4310   -1.5650 H   0  0  0  0  0  0  0  0  0  0  0  0
   15.1900   27.5860   -3.6430 H   0  0  0  0  0  0  0  0  0  0  0  0
   13.1920   28.8210   -2.9590 H   0  0  0  0  0  0  0  0  0  0  0  0
   13.3280   27.0940   -2.5500 H   0  0  0  0  0  0  0  0  0  0  0  0
   13.7410   29.8690    0.7260 H   0  0  0  0  0  0  0  0  0  0  0  0
   13.7240   30.5530   -0.9170 H   0  0  0  0  0  0  0  0  0  0  0  0
   15.1150   29.5880   -0.3700 H   0  0  0  0  0  0  0  0  0  0  0  0
   13.9410   26.3430   -0.5340 H   0  0  0  0  0  0  0  0  0  0  0  0
   14.6600   27.4820    0.6300 H   0  0  0  0  0  0  0  0  0  0  0  0
   12.4290   27.7310    1.7420 H   0  0  0  0  0  0  0  0  0  0  0  0
   12.9490   26.0290    1.7280 H   0  0  0  0  0  0  0  0  0  0  0  0
   11.0520   24.4840   -1.4960 H   0  0  0  0  0  0  0  0  0  0  0  0
    9.8940   22.3520   -1.0660 H   0  0  0  0  0  0  0  0  0  0  0  0
    9.3060   23.4960    3.0250 H   0  0  0  0  0  0  0  0  0  0  0  0
   10.4650   25.6270    2.5950 H   0  0  0  0  0  0  0  0  0  0  0  0
    9.5370   26.1290   -1.5730 H   0  0  0  0  0  0  0  0  0  0  0  0
    9.9590   27.5590   -2.5450 H   0  0  0  0  0  0  0  0  0  0  0  0
    9.1180   28.8240   -0.4930 H   0  0  0  0  0  0  0  0  0  0  0  0
    7.7890   26.1760   -0.1630 H   0  0  0  0  0  0  0  0  0  0  0  0
    8.9780   26.8640    0.9690 H   0  0  0  0  0  0  0  0  0  0  0  0
    7.4420   28.7980    1.4070 H   0  0  0  0  0  0  0  0  0  0  0  0
    6.6220   27.2600    1.7690 H   0  0  0  0  0  0  0  0  0  0  0  0
    5.4990   25.7180    0.9090 H   0  0  0  0  0  0  0  0  0  0  0  0
    3.3730   24.5020    0.6790 H   0  0  0  0  0  0  0  0  0  0  0  0
    1.0500   23.3030   -0.1810 H   0  0  0  0  0  0  0  0  0  0  0  0
   -1.5780   26.7880    0.3110 H   0  0  0  0  0  0  0  0  0  0  0  0
   -3.9300   26.9980   -0.3730 H   0  0  0  0  0  0  0  0  0  0  0  0
   -6.1580   25.0680   -1.0070 H   0  0  0  0  0  0  0  0  0  0  0  0
   -6.5760   25.1050    1.9380 H   0  0  0  0  0  0  0  0  0  0  0  0
   -8.7840   26.2490    1.1120 H   0  0  0  0  0  0  0  0  0  0  0  0
   -8.1570   25.9950   -0.5340 H   0  0  0  0  0  0  0  0  0  0  0  0
   -8.5460   23.8300    1.6030 H   0  0  0  0  0  0  0  0  0  0  0  0
   -7.8340   23.5550   -0.0050 H   0  0  0  0  0  0  0  0  0  0  0  0
  -10.4180   24.9160    0.1800 H   0  0  0  0  0  0  0  0  0  0  0  0
   -9.9410   21.9790    0.3040 H   0  0  0  0  0  0  0  0  0  0  0  0
  -10.6040   22.9530    1.6380 H   0  0  0  0  0  0  0  0  0  0  0  0
  -12.5280   23.6350    0.1710 H   0  0  0  0  0  0  0  0  0  0  0  0
  -12.4510   21.8640    0.3260 H   0  0  0  0  0  0  0  0  0  0  0  0
  -11.1040   23.6120   -3.1710 H   0  0  0  0  0  0  0  0  0  0  0  0
  -11.7380   24.6600   -1.8800 H   0  0  0  0  0  0  0  0  0  0  0  0
   -9.2270   24.7400   -1.9390 H   0  0  0  0  0  0  0  0  0  0  0  0
   -9.1720   22.9780   -1.6980 H   0  0  0  0  0  0  0  0  0  0  0  0
   -6.4900   27.8270    0.5760 H   0  0  0  0  0  0  0  0  0  0  0  0
   -5.2220   27.2020    1.6580 H   0  0  0  0  0  0  0  0  0  0  0  0
   -5.3230   29.5270    1.8140 H   0  0  0  0  0  0  0  0  0  0  0  0
   -4.9900   31.9230    2.2950 H   0  0  0  0  0  0  0  0  0  0  0  0
   -6.4410   33.0780    3.9290 H   0  0  0  0  0  0  0  0  0  0  0  0
   -8.2260   31.8250    5.0910 H   0  0  0  0  0  0  0  0  0  0  0  0
   -8.5720   29.4330    4.6180 H   0  0  0  0  0  0  0  0  0  0  0  0
   -2.2900   22.7590    1.5520 H   0  0  0  0  0  0  0  0  0  0  0  0
    1.6940   27.8240   -1.4480 H   0  0  0  0  0  0  0  0  0  0  0  0
    3.7990   29.0620   -1.1860 H   0  0  0  0  0  0  0  0  0  0  0  0
    5.7060   29.1950   -1.8870 H   0  0  0  0  0  0  0  0  0  0  0  0
    6.8950   29.9640   -0.8080 H   0  0  0  0  0  0  0  0  0  0  0  0
    8.0430   28.7630   -2.6980 H   0  0  0  0  0  0  0  0  0  0  0  0
    7.2560   27.2460   -2.2020 H   0  0  0  0  0  0  0  0  0  0  0  0
   11.5110   29.2050   -1.7440 H   0  0  0  0  0  0  0  0  0  0  0  0
   11.5660   29.3600    0.0280 H   0  0  0  0  0  0  0  0  0  0  0  0
   14.9260   30.0710   -3.5690 H   0  0  0  0  0  0  0  0  0  0  0  0
   15.7800   29.9990   -2.0080 H   0  0  0  0  0  0  0  0  0  0  0  0
   17.3990   30.4400   -3.8690 H   0  0  0  0  0  0  0  0  0  0  0  0
   16.8710   28.9480   -4.6820 H   0  0  0  0  0  0  0  0  0  0  0  0
   30.3570   32.4490    0.8670 H   0  0  0  0  0  0  0  0  0  0  0  0
   31.1820   31.1500    1.7590 H   0  0  0  0  0  0  0  0  0  0  0  0
   29.4360   31.0350    1.4330 H   0  0  0  0  0  0  0  0  0  0  0  0
   31.9270   32.2960   -0.9520 H   0  0  0  0  0  0  0  0  0  0  0  0
   32.2150   30.7680   -1.8200 H   0  0  0  0  0  0  0  0  0  0  0  0
   32.8250   30.9780   -0.1610 H   0  0  0  0  0  0  0  0  0  0  0  0
   29.5820   32.1440   -1.4040 H   0  0  0  0  0  0  0  0  0  0  0  0
   28.6310   30.7040   -0.9660 H   0  0  0  0  0  0  0  0  0  0  0  0
   29.8290   30.6140   -2.2790 H   0  0  0  0  0  0  0  0  0  0  0  0
   34.0450   33.7430    2.2920 H   0  0  0  0  0  0  0  0  0  0  0  0
   34.3720   34.8140    0.1040 H   0  0  0  0  0  0  0  0  0  0  0  0
   34.8160   35.4700   -5.0590 H   0  0  0  0  0  0  0  0  0  0  0  0
  1  2  1  0  0  0  0
  1114  1  0  0  0  0
  1115  1  0  0  0  0
  1116  1  0  0  0  0
  2  3  2  0  0  0  0
  2113  1  0  0  0  0
  3  4  1  0  0  0  0
  3111  1  0  0  0  0
  4  5  1  0  0  0  0
  4110  2  0  0  0  0
  5  6  2  0  0  0  0
  5117  1  0  0  0  0
  6  7  1  0  0  0  0
  6118  1  0  0  0  0
  7  8  1  0  0  0  0
  7109  2  0  0  0  0
  8  9  1  0  0  0  0
  8 10  1  0  0  0  0
  8119  1  0  0  0  0
  9120  1  0  0  0  0
  9121  1  0  0  0  0
  9122  1  0  0  0  0
 10 11  1  0  0  0  0
 10123  1  0  0  0  0
 11 12  2  0  0  0  0
 11 13  1  0  0  0  0
 13 14  1  0  0  0  0
 13 18  1  0  0  0  0
 13124  1  0  0  0  0
 14 15  1  0  0  0  0
 14125  1  0  0  0  0
 14126  1  0  0  0  0
 15 16  1  0  0  0  0
 15 17  1  0  0  0  0
 15127  1  0  0  0  0
 16128  1  0  0  0  0
 17 18  1  0  0  0  0
 17129  1  0  0  0  0
 17130  1  0  0  0  0
 18 19  1  0  0  0  0
 19 20  2  0  0  0  0
 19 21  1  0  0  0  0
 21 22  1  0  0  0  0
 21105  1  0  0  0  0
 21131  1  0  0  0  0
 22 23  1  0  0  0  0
 22132  1  0  0  0  0
 23 24  2  0  0  0  0
 23 25  1  0  0  0  0
 25 26  1  0  0  0  0
 25133  1  0  0  0  0
 25134  1  0  0  0  0
 26 27  1  0  0  0  0
 26135  1  0  0  0  0
 26136  1  0  0  0  0
 27 28  1  0  0  0  0
 27137  1  0  0  0  0
 27138  1  0  0  0  0
 28 29  1  0  0  0  0
 28139  1  0  0  0  0
 28140  1  0  0  0  0
 29 30  1  0  0  0  0
 29141  1  0  0  0  0
 29142  1  0  0  0  0
 30 31  1  0  0  0  0
 30143  1  0  0  0  0
 30144  1  0  0  0  0
 31 32  1  0  0  0  0
 31145  1  0  0  0  0
 31146  1  0  0  0  0
 32 33  2  0  0  0  0
 32 34  1  0  0  0  0
 34 35  1  0  0  0  0
 34104  1  0  0  0  0
 35 36  1  0  0  0  0
 35147  1  0  0  0  0
 35148  1  0  0  0  0
 36 37  1  0  0  0  0
 36149  1  0  0  0  0
 36150  1  0  0  0  0
 37 38  1  0  0  0  0
 37103  1  0  0  0  0
 37151  1  0  0  0  0
 38 39  1  0  0  0  0
 38152  1  0  0  0  0
 38153  1  0  0  0  0
 39 40  1  0  0  0  0
 39 41  1  0  0  0  0
 39102  1  0  0  0  0
 40154  1  0  0  0  0
 40155  1  0  0  0  0
 40156  1  0  0  0  0
 41 42  1  0  0  0  0
 41157  1  0  0  0  0
 41158  1  0  0  0  0
 42 43  1  0  0  0  0
 42159  1  0  0  0  0
 42160  1  0  0  0  0
 43 44  1  0  0  0  0
 43 51  2  0  0  0  0
 44 45  1  0  0  0  0
 44 50  2  0  0  0  0
 45 46  2  0  0  0  0
 45161  1  0  0  0  0
 46 47  1  0  0  0  0
 46162  1  0  0  0  0
 47 48  1  0  0  0  0
 47 49  2  0  0  0  0
 49 50  1  0  0  0  0
 49163  1  0  0  0  0
 50164  1  0  0  0  0
 51 52  1  0  0  0  0
 51102  1  0  0  0  0
 52 53  1  0  0  0  0
 52165  1  0  0  0  0
 52166  1  0  0  0  0
 53 54  1  0  0  0  0
 53101  1  0  0  0  0
 53167  1  0  0  0  0
 54 55  1  0  0  0  0
 54168  1  0  0  0  0
 54169  1  0  0  0  0
 55 56  1  0  0  0  0
 55170  1  0  0  0  0
 55171  1  0  0  0  0
 56 57  1  0  0  0  0
 56100  1  0  0  0  0
 57 58  1  0  0  0  0
 57 99  2  0  0  0  0
 58 59  2  0  0  0  0
 58172  1  0  0  0  0
 59 60  1  0  0  0  0
 59173  1  0  0  0  0
 60 61  1  0  0  0  0
 60 98  2  0  0  0  0
 61 62  2  0  0  0  0
 61 63  1  0  0  0  0
 63 64  1  0  0  0  0
 63174  1  0  0  0  0
 64 65  2  0  0  0  0
 64 66  2  0  0  0  0
 64 67  1  0  0  0  0
 67 68  1  0  0  0  0
 67 97  2  0  0  0  0
 68 69  2  0  0  0  0
 68175  1  0  0  0  0
 69 70  1  0  0  0  0
 69176  1  0  0  0  0
 70 71  1  0  0  0  0
 70 89  2  0  0  0  0
 71 72  1  0  0  0  0
 71177  1  0  0  0  0
 72 73  1  0  0  0  0
 72 81  1  0  0  0  0
 72178  1  0  0  0  0
 73 74  1  0  0  0  0
 73179  1  0  0  0  0
 73180  1  0  0  0  0
 74 75  1  0  0  0  0
 74181  1  0  0  0  0
 74182  1  0  0  0  0
 75 76  1  0  0  0  0
 75 80  1  0  0  0  0
 75183  1  0  0  0  0
 76 77  1  0  0  0  0
 76184  1  0  0  0  0
 76185  1  0  0  0  0
 77 78  1  0  0  0  0
 77186  1  0  0  0  0
 77187  1  0  0  0  0
 78 79  1  0  0  0  0
 79 80  1  0  0  0  0
 79188  1  0  0  0  0
 79189  1  0  0  0  0
 80190  1  0  0  0  0
 80191  1  0  0  0  0
 81 82  1  0  0  0  0
 81192  1  0  0  0  0
 81193  1  0  0  0  0
 82 83  1  0  0  0  0
 83 84  1  0  0  0  0
 83 88  2  0  0  0  0
 84 85  2  0  0  0  0
 84194  1  0  0  0  0
 85 86  1  0  0  0  0
 85195  1  0  0  0  0
 86 87  2  0  0  0  0
 86196  1  0  0  0  0
 87 88  1  0  0  0  0
 87197  1  0  0  0  0
 88198  1  0  0  0  0
 89 90  1  0  0  0  0
 89 97  1  0  0  0  0
 90 91  2  0  0  0  0
 90 92  2  0  0  0  0
 90 93  1  0  0  0  0
 93 94  1  0  0  0  0
 93 95  1  0  0  0  0
 93 96  1  0  0  0  0
 97199  1  0  0  0  0
 98 99  1  0  0  0  0
 98200  1  0  0  0  0
 99201  1  0  0  0  0
100101  1  0  0  0  0
100202  1  0  0  0  0
100203  1  0  0  0  0
101204  1  0  0  0  0
101205  1  0  0  0  0
102206  1  0  0  0  0
102207  1  0  0  0  0
103104  1  0  0  0  0
103208  1  0  0  0  0
103209  1  0  0  0  0
104210  1  0  0  0  0
104211  1  0  0  0  0
105106  1  0  0  0  0
105107  1  0  0  0  0
105108  1  0  0  0  0
106212  1  0  0  0  0
106213  1  0  0  0  0
106214  1  0  0  0  0
107215  1  0  0  0  0
107216  1  0  0  0  0
107217  1  0  0  0  0
108218  1  0  0  0  0
108219  1  0  0  0  0
108220  1  0  0  0  0
109110  1  0  0  0  0
109221  1  0  0  0  0
110222  1  0  0  0  0
111112  1  0  0  0  0
112113  2  0  0  0  0
112223  1  0  0  0  0
M  CHG  1  37   1
M  CHG  1  53   1
M  CHG  1  75   1
M  END
>  <Compound ID>
3217

>  <Uniprot>
Q07817

>  <Target>
BCL-xL

>  <E3 ligase>
VHL

>  <Article DOI>
10.1038/s41467-021-27210-x

>  <Molecular Weight>
1655.55

>  <Exact Mass>
1653.6675

>  <XLogP3>
12.86

>  <Heavy Atom Count>
113

>  <Ring Count>
11

>  <Hydrogen Bond Acceptor Count>
19

>  <Hydrogen Bond Donor Count>
5

>  <Rotatable Bond Count>
32

>  <Topological Polar Surface Area>
263.54001

>  <Molecular Formula>
C83H107ClF3N11O11S4

>  <InChI>
InChI=1S/C83H107ClF3N11O11S4/c1-57(59-19-21-61(22-20-59)76-58(2)88-56-111-76)89-79(103)72-49-67(99)53-98(72)80(104)77(81(3,4)5)91-74(100)17-13-8-7-9-14-18-75(101)97-43-39-95(40-44-97)55-82(6)35-33-70(60-23-27-64(84)28-24-60)63(51-82)52-94-37-41-96(42-38-94)66-29-25-62(26-30-66)78(102)92-113(107,108)69-31-32-71(73(50-69)112(105,106)83(85,86)87)90-65(34-36-93-45-47-109-48-46-93)54-110-68-15-11-10-12-16-68/h10-12,15-16,19-32,50,56-57,65,67,72,77,90,99H,7-9,13-14,17-18,33-49,51-55H2,1-6H3,(H,89,103)(H,91,100)(H,92,102)/t57-,65+,67+,72-,77+,82?/m0/s1

>  <InChI Key>
YCSHJMBQFQHZEP-BMNBLYSOSA-N

>  <DC50 (nM)>
12.8

>  <Assay (DC50/Dmax)>
Degradation of BCL-xL in 293T cells after 16 h treatment

>  <Name>
PPC9

>  <Dmax (%)>
96

$$$$
3218
  MOE2018           3D

226236  0  0  1  0  0  0  0  0999 V2000
   19.6060   22.1110    2.8140 C   0  0  0  0  0  0  0  0  0  0  0  0
   19.9980   23.4460    2.2250 C   0  0  0  0  0  0  0  0  0  0  0  0
   19.3160   24.1000    1.2300 C   0  0  0  0  0  0  0  0  0  0  0  0
   18.0910   23.7140    0.5400 C   0  0  0  0  0  0  0  0  0  0  0  0
   16.9580   23.3080    1.2530 C   0  0  0  0  0  0  0  0  0  0  0  0
   15.7930   22.9380    0.5900 C   0  0  0  0  0  0  0  0  0  0  0  0
   15.7290   22.9660   -0.8030 C   0  0  0  0  0  0  0  0  0  0  0  0
   14.4310   22.5660   -1.4880 C   0  0  2  0  0  0  0  0  0  0  0  0
   14.7090   21.4770   -2.5330 C   0  0  0  0  0  0  0  0  0  0  0  0
   13.9730   23.7420   -2.1980 N   0  0  0  0  0  0  0  0  0  0  0  0
   12.7140   24.1180   -2.4110 C   0  0  0  0  0  0  0  0  0  0  0  0
   12.5340   25.2300   -2.8970 O   0  0  0  0  0  0  0  0  0  0  0  0
   11.5030   23.1750   -2.1440 C   0  0  2  0  0  0  0  0  0  0  0  0
   10.6390   22.9850   -3.4060 C   0  0  0  0  0  0  0  0  0  0  0  0
    9.2520   23.5180   -3.0500 C   0  0  1  0  0  0  0  0  0  0  0  0
    8.4000   22.4360   -2.7350 O   0  0  0  0  0  0  0  0  0  0  0  0
    9.4930   24.3740   -1.8090 C   0  0  0  0  0  0  0  0  0  0  0  0
   10.5990   23.7210   -1.1230 N   0  0  0  0  0  0  0  0  0  0  0  0
   10.8290   23.5410    0.1990 C   0  0  0  0  0  0  0  0  0  0  0  0
   11.7650   22.8150    0.5340 O   0  0  0  0  0  0  0  0  0  0  0  0
   10.0320   24.2850    1.3200 C   0  0  1  0  0  0  0  0  0  0  0  0
    9.5460   25.6240    0.9300 N   0  0  0  0  0  0  0  0  0  0  0  0
    9.7260   26.7230    1.6570 C   0  0  0  0  0  0  0  0  0  0  0  0
   10.2700   26.7060    2.7520 O   0  0  0  0  0  0  0  0  0  0  0  0
    9.1980   28.0290    1.0770 C   0  0  0  0  0  0  0  0  0  0  0  0
    7.6630   28.0530    0.9730 C   0  0  0  0  0  0  0  0  0  0  0  0
    7.1690   29.4200    0.4820 C   0  0  0  0  0  0  0  0  0  0  0  0
    5.6440   29.4100    0.3140 C   0  0  0  0  0  0  0  0  0  0  0  0
    5.1350   30.8000   -0.0910 C   0  0  0  0  0  0  0  0  0  0  0  0
    3.6180   30.7690   -0.3170 C   0  0  0  0  0  0  0  0  0  0  0  0
    3.0910   32.1720   -0.6500 C   0  0  0  0  0  0  0  0  0  0  0  0
    1.5800   32.1340   -0.9400 C   0  0  0  0  0  0  0  0  0  0  0  0
    0.9590   33.5040   -1.2470 C   0  0  0  0  0  0  0  0  0  0  0  0
    1.6160   34.5220   -1.0730 O   0  0  0  0  0  0  0  0  0  0  0  0
   -0.3250   33.5860   -1.6620 N   0  0  0  0  0  0  0  0  0  0  0  0
   -0.9010   34.9070   -2.0330 C   0  0  0  0  0  0  0  0  0  0  0  0
   -1.9730   35.2220   -0.9630 C   0  0  0  0  0  0  0  0  0  0  0  0
   -3.0100   34.1330   -1.0180 N   0  3  0  0  0  0  0  0  0  0  0  0
   -4.2280   34.4200   -0.1590 C   0  0  0  0  0  0  0  0  0  0  0  0
   -4.0360   34.9930    1.3040 C   0  0  1  0  0  0  0  0  0  0  0  0
   -2.9990   34.1960    2.1280 C   0  0  0  0  0  0  0  0  0  0  0  0
   -3.6360   36.4900    1.3690 C   0  0  0  0  0  0  0  0  0  0  0  0
   -4.5960   37.3260    0.4980 C   0  0  0  0  0  0  0  0  0  0  0  0
   -6.0270   37.0470    0.9370 C   0  0  0  0  0  0  0  0  0  0  0  0
   -6.9630   38.1150    0.6050 C   0  0  0  0  0  0  0  0  0  0  0  0
   -7.5220   38.9100    1.6140 C   0  0  0  0  0  0  0  0  0  0  0  0
   -8.4370   39.9090    1.3060 C   0  0  0  0  0  0  0  0  0  0  0  0
   -8.7970   40.1350   -0.0230 C   0  0  0  0  0  0  0  0  0  0  0  0
   -9.9530   41.3660   -0.4100 Cl  0  0  0  0  0  0  0  0  0  0  0  0
   -8.2250   39.3720   -1.0410 C   0  0  0  0  0  0  0  0  0  0  0  0
   -7.3100   38.3730   -0.7280 C   0  0  0  0  0  0  0  0  0  0  0  0
   -6.3940   35.9320    1.6180 C   0  0  0  0  0  0  0  0  0  0  0  0
   -7.8070   35.7640    2.1680 C   0  0  0  0  0  0  0  0  0  0  0  0
   -8.4650   34.7970    1.2870 N   0  3  0  0  0  0  0  0  0  0  0  0
   -9.0160   35.5410    0.1030 C   0  0  0  0  0  0  0  0  0  0  0  0
   -9.6620   34.5150   -0.8650 C   0  0  0  0  0  0  0  0  0  0  0  0
  -10.7330   33.8100   -0.1170 N   0  0  0  0  0  0  0  0  0  0  0  0
  -11.6790   33.0880   -0.8570 C   0  0  0  0  0  0  0  0  0  0  0  0
  -12.9630   32.9350   -0.3260 C   0  0  0  0  0  0  0  0  0  0  0  0
  -13.9220   32.2100   -1.0200 C   0  0  0  0  0  0  0  0  0  0  0  0
  -13.6180   31.6100   -2.2590 C   0  0  0  0  0  0  0  0  0  0  0  0
  -14.5960   30.8120   -3.0050 C   0  0  0  0  0  0  0  0  0  0  0  0
  -14.4490   30.5140   -4.1770 O   0  0  0  0  0  0  0  0  0  0  0  0
  -15.7120   30.3780   -2.3680 N   0  0  0  0  0  0  0  0  0  0  0  0
  -16.5950   29.1340   -2.9980 S   0  0  0  0  0  0  0  0  0  0  0  0
  -17.2040   29.5540   -4.2040 O   0  0  0  0  0  0  0  0  0  0  0  0
  -15.7690   27.9870   -3.0590 O   0  0  0  0  0  0  0  0  0  0  0  0
  -17.8970   28.8590   -1.7740 C   0  0  0  0  0  0  0  0  0  0  0  0
  -17.7280   27.9340   -0.7410 C   0  0  0  0  0  0  0  0  0  0  0  0
  -18.7340   27.7220    0.1900 C   0  0  0  0  0  0  0  0  0  0  0  0
  -19.9420   28.4170    0.0890 C   0  0  0  0  0  0  0  0  0  0  0  0
  -20.9320   28.1120    1.0310 N   0  0  0  0  0  0  0  0  0  0  0  0
  -21.9390   27.1040    0.5950 C   0  0  2  0  0  0  0  0  0  0  0  0
  -23.0290   27.0880    1.6860 C   0  0  0  0  0  0  0  0  0  0  0  0
  -23.8020   28.4030    1.5430 C   0  0  0  0  0  0  0  0  0  0  0  0
  -24.8610   28.3690    2.5660 N   0  3  0  0  0  0  0  0  0  0  0  0
  -25.2430   29.7880    2.8510 C   0  0  0  0  0  0  0  0  0  0  0  0
  -26.3630   29.7680    3.9190 C   0  0  0  0  0  0  0  0  0  0  0  0
  -27.4570   29.0380    3.3660 O   0  0  0  0  0  0  0  0  0  0  0  0
  -27.1690   27.6740    3.0640 C   0  0  0  0  0  0  0  0  0  0  0  0
  -26.0590   27.6740    1.9870 C   0  0  0  0  0  0  0  0  0  0  0  0
  -21.2590   25.7240    0.4640 C   0  0  0  0  0  0  0  0  0  0  0  0
  -22.5270   24.5880   -0.2080 S   0  0  0  0  0  0  0  0  0  0  0  0
  -21.8620   22.9730   -0.0840 C   0  0  0  0  0  0  0  0  0  0  0  0
  -22.7270   21.8850   -0.2430 C   0  0  0  0  0  0  0  0  0  0  0  0
  -22.2480   20.5840   -0.1390 C   0  0  0  0  0  0  0  0  0  0  0  0
  -20.9010   20.3530    0.1210 C   0  0  0  0  0  0  0  0  0  0  0  0
  -20.0310   21.4290    0.2700 C   0  0  0  0  0  0  0  0  0  0  0  0
  -20.5020   22.7330    0.1660 C   0  0  0  0  0  0  0  0  0  0  0  0
  -20.1230   29.3870   -0.9120 C   0  0  0  0  0  0  0  0  0  0  0  0
  -21.5700   30.4680   -0.9720 S   0  0  0  0  0  0  0  0  0  0  0  0
  -22.7640   29.6970   -0.8190 O   0  0  0  0  0  0  0  0  0  0  0  0
  -21.4990   31.2370   -2.1670 O   0  0  0  0  0  0  0  0  0  0  0  0
  -21.3150   31.5880    0.5370 C   0  0  0  0  0  0  0  0  0  0  0  0
  -20.0180   31.9070    0.7740 F   0  0  0  0  0  0  0  0  0  0  0  0
  -21.9550   32.7760    0.4650 F   0  0  0  0  0  0  0  0  0  0  0  0
  -21.7540   31.0500    1.7120 F   0  0  0  0  0  0  0  0  0  0  0  0
  -19.1000   29.5690   -1.8480 C   0  0  0  0  0  0  0  0  0  0  0  0
  -12.3270   31.7940   -2.7860 C   0  0  0  0  0  0  0  0  0  0  0  0
  -11.3670   32.5230   -2.1000 C   0  0  0  0  0  0  0  0  0  0  0  0
  -10.3160   33.1480    1.1450 C   0  0  0  0  0  0  0  0  0  0  0  0
   -9.6380   34.2260    2.0320 C   0  0  0  0  0  0  0  0  0  0  0  0
   -5.3990   34.8500    2.0510 C   0  0  0  0  0  0  0  0  0  0  0  0
   -2.3720   32.8290   -0.6110 C   0  0  0  0  0  0  0  0  0  0  0  0
   -1.2900   32.4610   -1.6620 C   0  0  0  0  0  0  0  0  0  0  0  0
    8.8740   23.4280    1.9430 C   0  0  0  0  0  0  0  0  0  0  0  0
    7.7210   23.1270    0.9670 C   0  0  0  0  0  0  0  0  0  0  0  0
    9.4060   22.0750    2.4600 C   0  0  0  0  0  0  0  0  0  0  0  0
    8.2580   24.1360    3.1690 C   0  0  0  0  0  0  0  0  0  0  0  0
   16.8530   23.3840   -1.5200 C   0  0  0  0  0  0  0  0  0  0  0  0
   18.0180   23.7520   -0.8560 C   0  0  0  0  0  0  0  0  0  0  0  0
   20.1240   25.5640    0.8470 S   0  0  0  0  0  0  0  0  0  0  0  0
   21.2920   25.2030    2.0540 C   0  0  0  0  0  0  0  0  0  0  0  0
   21.1060   24.0800    2.6870 N   0  0  0  0  0  0  0  0  0  0  0  0
   18.6990   21.7520    2.3280 H   0  0  0  0  0  0  0  0  0  0  0  0
   19.4250   22.2250    3.8830 H   0  0  0  0  0  0  0  0  0  0  0  0
   20.4110   21.3940    2.6560 H   0  0  0  0  0  0  0  0  0  0  0  0
   16.9880   23.2820    2.3320 H   0  0  0  0  0  0  0  0  0  0  0  0
   14.9300   22.6260    1.1590 H   0  0  0  0  0  0  0  0  0  0  0  0
   13.7070   22.1980   -0.7610 H   0  0  0  0  0  0  0  0  0  0  0  0
   15.4330   21.8470   -3.2590 H   0  0  0  0  0  0  0  0  0  0  0  0
   13.7820   21.2180   -3.0440 H   0  0  0  0  0  0  0  0  0  0  0  0
   15.1100   20.5920   -2.0380 H   0  0  0  0  0  0  0  0  0  0  0  0
   14.6900   24.3450   -2.5740 H   0  0  0  0  0  0  0  0  0  0  0  0
   11.9430   22.2330   -1.8180 H   0  0  0  0  0  0  0  0  0  0  0  0
   10.5830   21.9290   -3.6710 H   0  0  0  0  0  0  0  0  0  0  0  0
   11.0580   23.5470   -4.2400 H   0  0  0  0  0  0  0  0  0  0  0  0
    8.7850   24.0770   -3.8610 H   0  0  0  0  0  0  0  0  0  0  0  0
    8.8100   21.9420   -2.0210 H   0  0  0  0  0  0  0  0  0  0  0  0
    8.6050   24.3940   -1.1770 H   0  0  0  0  0  0  0  0  0  0  0  0
    9.7620   25.3920   -2.0900 H   0  0  0  0  0  0  0  0  0  0  0  0
   10.7770   24.4390    2.1010 H   0  0  0  0  0  0  0  0  0  0  0  0
    9.0460   25.7100    0.0570 H   0  0  0  0  0  0  0  0  0  0  0  0
    9.5170   28.8500    1.7190 H   0  0  0  0  0  0  0  0  0  0  0  0
    9.6180   28.1630    0.0800 H   0  0  0  0  0  0  0  0  0  0  0  0
    7.3410   27.2840    0.2710 H   0  0  0  0  0  0  0  0  0  0  0  0
    7.2360   27.8510    1.9550 H   0  0  0  0  0  0  0  0  0  0  0  0
    7.4450   30.1840    1.2090 H   0  0  0  0  0  0  0  0  0  0  0  0
    7.6340   29.6460   -0.4770 H   0  0  0  0  0  0  0  0  0  0  0  0
    5.3740   28.6910   -0.4590 H   0  0  0  0  0  0  0  0  0  0  0  0
    5.1820   29.1200    1.2580 H   0  0  0  0  0  0  0  0  0  0  0  0
    5.6290   31.1090   -1.0120 H   0  0  0  0  0  0  0  0  0  0  0  0
    5.3660   31.5120    0.7020 H   0  0  0  0  0  0  0  0  0  0  0  0
    3.1290   30.4080    0.5880 H   0  0  0  0  0  0  0  0  0  0  0  0
    3.3930   30.0960   -1.1450 H   0  0  0  0  0  0  0  0  0  0  0  0
    3.6140   32.5510   -1.5280 H   0  0  0  0  0  0  0  0  0  0  0  0
    3.2760   32.8330    0.1970 H   0  0  0  0  0  0  0  0  0  0  0  0
    1.0760   31.7190   -0.0670 H   0  0  0  0  0  0  0  0  0  0  0  0
    1.4140   31.4840   -1.7990 H   0  0  0  0  0  0  0  0  0  0  0  0
   -0.1250   35.6730   -2.0290 H   0  0  0  0  0  0  0  0  0  0  0  0
   -1.3570   34.8570   -3.0220 H   0  0  0  0  0  0  0  0  0  0  0  0
   -2.4360   36.1860   -1.1740 H   0  0  0  0  0  0  0  0  0  0  0  0
   -1.5140   35.2480    0.0250 H   0  0  0  0  0  0  0  0  0  0  0  0
   -3.3480   34.0810   -1.9680 H   0  0  0  0  0  0  0  0  0  0  0  0
   -4.8370   35.1410   -0.7040 H   0  0  0  0  0  0  0  0  0  0  0  0
   -4.7750   33.4820   -0.0620 H   0  0  0  0  0  0  0  0  0  0  0  0
   -2.9100   34.6350    3.1220 H   0  0  0  0  0  0  0  0  0  0  0  0
   -2.0320   34.2320    1.6270 H   0  0  0  0  0  0  0  0  0  0  0  0
   -3.3240   33.1590    2.2160 H   0  0  0  0  0  0  0  0  0  0  0  0
   -3.6910   36.8350    2.4020 H   0  0  0  0  0  0  0  0  0  0  0  0
   -2.6170   36.6090    1.0000 H   0  0  0  0  0  0  0  0  0  0  0  0
   -4.4740   37.0500   -0.5490 H   0  0  0  0  0  0  0  0  0  0  0  0
   -4.3750   38.3860    0.6230 H   0  0  0  0  0  0  0  0  0  0  0  0
   -7.2380   38.7440    2.6430 H   0  0  0  0  0  0  0  0  0  0  0  0
   -8.8690   40.5090    2.0930 H   0  0  0  0  0  0  0  0  0  0  0  0
   -8.4920   39.5570   -2.0710 H   0  0  0  0  0  0  0  0  0  0  0  0
   -6.8620   37.7900   -1.5200 H   0  0  0  0  0  0  0  0  0  0  0  0
   -8.3370   36.7160    2.1500 H   0  0  0  0  0  0  0  0  0  0  0  0
   -7.7740   35.3860    3.1900 H   0  0  0  0  0  0  0  0  0  0  0  0
   -7.8170   34.0770    0.9990 H   0  0  0  0  0  0  0  0  0  0  0  0
   -9.7680   36.2570    0.4360 H   0  0  0  0  0  0  0  0  0  0  0  0
   -8.2110   36.0700   -0.4060 H   0  0  0  0  0  0  0  0  0  0  0  0
   -8.9120   33.8000   -1.2040 H   0  0  0  0  0  0  0  0  0  0  0  0
  -10.0870   35.0320   -1.7260 H   0  0  0  0  0  0  0  0  0  0  0  0
  -13.2090   33.3820    0.6260 H   0  0  0  0  0  0  0  0  0  0  0  0
  -14.9140   32.1040   -0.6050 H   0  0  0  0  0  0  0  0  0  0  0  0
  -16.0030   30.8170   -1.5060 H   0  0  0  0  0  0  0  0  0  0  0  0
  -16.8050   27.3780   -0.6670 H   0  0  0  0  0  0  0  0  0  0  0  0
  -18.5830   27.0180    0.9950 H   0  0  0  0  0  0  0  0  0  0  0  0
  -20.9620   28.5450    1.9430 H   0  0  0  0  0  0  0  0  0  0  0  0
  -22.3730   27.3450   -0.3750 H   0  0  0  0  0  0  0  0  0  0  0  0
  -23.6970   26.2400    1.5390 H   0  0  0  0  0  0  0  0  0  0  0  0
  -22.5730   27.0240    2.6740 H   0  0  0  0  0  0  0  0  0  0  0  0
  -24.2400   28.4780    0.5480 H   0  0  0  0  0  0  0  0  0  0  0  0
  -23.1390   29.2520    1.7130 H   0  0  0  0  0  0  0  0  0  0  0  0
  -24.5480   27.8930    3.4000 H   0  0  0  0  0  0  0  0  0  0  0  0
  -24.3800   30.3360    3.2280 H   0  0  0  0  0  0  0  0  0  0  0  0
  -25.6070   30.2650    1.9410 H   0  0  0  0  0  0  0  0  0  0  0  0
  -26.6740   30.7860    4.1540 H   0  0  0  0  0  0  0  0  0  0  0  0
  -26.0070   29.2780    4.8250 H   0  0  0  0  0  0  0  0  0  0  0  0
  -26.8220   27.1580    3.9590 H   0  0  0  0  0  0  0  0  0  0  0  0
  -28.0620   27.1790    2.6820 H   0  0  0  0  0  0  0  0  0  0  0  0
  -26.4030   28.2050    1.0990 H   0  0  0  0  0  0  0  0  0  0  0  0
  -25.8010   26.6490    1.7200 H   0  0  0  0  0  0  0  0  0  0  0  0
  -20.9200   25.3760    1.4400 H   0  0  0  0  0  0  0  0  0  0  0  0
  -20.4090   25.7850   -0.2160 H   0  0  0  0  0  0  0  0  0  0  0  0
  -23.7730   22.0570   -0.4480 H   0  0  0  0  0  0  0  0  0  0  0  0
  -22.9240   19.7500   -0.2600 H   0  0  0  0  0  0  0  0  0  0  0  0
  -20.5320   19.3420    0.2070 H   0  0  0  0  0  0  0  0  0  0  0  0
  -18.9840   21.2500    0.4670 H   0  0  0  0  0  0  0  0  0  0  0  0
  -19.8200   23.5630    0.2780 H   0  0  0  0  0  0  0  0  0  0  0  0
  -19.2430   30.2780   -2.6500 H   0  0  0  0  0  0  0  0  0  0  0  0
  -12.0790   31.3590   -3.7430 H   0  0  0  0  0  0  0  0  0  0  0  0
  -10.3820   32.6550   -2.5230 H   0  0  0  0  0  0  0  0  0  0  0  0
  -11.1870   32.7390    1.6560 H   0  0  0  0  0  0  0  0  0  0  0  0
   -9.6110   32.3450    0.9290 H   0  0  0  0  0  0  0  0  0  0  0  0
   -9.2960   33.7730    2.9620 H   0  0  0  0  0  0  0  0  0  0  0  0
  -10.3520   35.0190    2.2550 H   0  0  0  0  0  0  0  0  0  0  0  0
   -5.2260   34.9370    3.1240 H   0  0  0  0  0  0  0  0  0  0  0  0
   -5.8230   33.8700    1.8300 H   0  0  0  0  0  0  0  0  0  0  0  0
   -1.9100   32.9360    0.3700 H   0  0  0  0  0  0  0  0  0  0  0  0
   -3.1290   32.0460   -0.5730 H   0  0  0  0  0  0  0  0  0  0  0  0
   -1.7420   32.3490   -2.6480 H   0  0  0  0  0  0  0  0  0  0  0  0
   -0.7910   31.5330   -1.3830 H   0  0  0  0  0  0  0  0  0  0  0  0
    6.9620   22.5310    1.4740 H   0  0  0  0  0  0  0  0  0  0  0  0
    8.1050   22.5730    0.1100 H   0  0  0  0  0  0  0  0  0  0  0  0
    7.2800   24.0640    0.6260 H   0  0  0  0  0  0  0  0  0  0  0  0
    8.5840   21.5000    2.8870 H   0  0  0  0  0  0  0  0  0  0  0  0
   10.1620   22.2500    3.2250 H   0  0  0  0  0  0  0  0  0  0  0  0
    9.8480   21.5180    1.6330 H   0  0  0  0  0  0  0  0  0  0  0  0
    7.4580   23.5200    3.5810 H   0  0  0  0  0  0  0  0  0  0  0  0
    7.8530   25.1020    2.8660 H   0  0  0  0  0  0  0  0  0  0  0  0
    9.0270   24.2860    3.9260 H   0  0  0  0  0  0  0  0  0  0  0  0
   16.8170   23.4220   -2.5990 H   0  0  0  0  0  0  0  0  0  0  0  0
   18.8780   24.0710   -1.4260 H   0  0  0  0  0  0  0  0  0  0  0  0
   22.1210   25.8600    2.2720 H   0  0  0  0  0  0  0  0  0  0  0  0
  1  2  1  0  0  0  0
  1115  1  0  0  0  0
  1116  1  0  0  0  0
  1117  1  0  0  0  0
  2  3  2  0  0  0  0
  2114  1  0  0  0  0
  3  4  1  0  0  0  0
  3112  1  0  0  0  0
  4  5  1  0  0  0  0
  4111  2  0  0  0  0
  5  6  2  0  0  0  0
  5118  1  0  0  0  0
  6  7  1  0  0  0  0
  6119  1  0  0  0  0
  7  8  1  0  0  0  0
  7110  2  0  0  0  0
  8  9  1  0  0  0  0
  8 10  1  0  0  0  0
  8120  1  0  0  0  0
  9121  1  0  0  0  0
  9122  1  0  0  0  0
  9123  1  0  0  0  0
 10 11  1  0  0  0  0
 10124  1  0  0  0  0
 11 12  2  0  0  0  0
 11 13  1  0  0  0  0
 13 14  1  0  0  0  0
 13 18  1  0  0  0  0
 13125  1  0  0  0  0
 14 15  1  0  0  0  0
 14126  1  0  0  0  0
 14127  1  0  0  0  0
 15 16  1  0  0  0  0
 15 17  1  0  0  0  0
 15128  1  0  0  0  0
 16129  1  0  0  0  0
 17 18  1  0  0  0  0
 17130  1  0  0  0  0
 17131  1  0  0  0  0
 18 19  1  0  0  0  0
 19 20  2  0  0  0  0
 19 21  1  0  0  0  0
 21 22  1  0  0  0  0
 21106  1  0  0  0  0
 21132  1  0  0  0  0
 22 23  1  0  0  0  0
 22133  1  0  0  0  0
 23 24  2  0  0  0  0
 23 25  1  0  0  0  0
 25 26  1  0  0  0  0
 25134  1  0  0  0  0
 25135  1  0  0  0  0
 26 27  1  0  0  0  0
 26136  1  0  0  0  0
 26137  1  0  0  0  0
 27 28  1  0  0  0  0
 27138  1  0  0  0  0
 27139  1  0  0  0  0
 28 29  1  0  0  0  0
 28140  1  0  0  0  0
 28141  1  0  0  0  0
 29 30  1  0  0  0  0
 29142  1  0  0  0  0
 29143  1  0  0  0  0
 30 31  1  0  0  0  0
 30144  1  0  0  0  0
 30145  1  0  0  0  0
 31 32  1  0  0  0  0
 31146  1  0  0  0  0
 31147  1  0  0  0  0
 32 33  1  0  0  0  0
 32148  1  0  0  0  0
 32149  1  0  0  0  0
 33 34  2  0  0  0  0
 33 35  1  0  0  0  0
 35 36  1  0  0  0  0
 35105  1  0  0  0  0
 36 37  1  0  0  0  0
 36150  1  0  0  0  0
 36151  1  0  0  0  0
 37 38  1  0  0  0  0
 37152  1  0  0  0  0
 37153  1  0  0  0  0
 38 39  1  0  0  0  0
 38104  1  0  0  0  0
 38154  1  0  0  0  0
 39 40  1  0  0  0  0
 39155  1  0  0  0  0
 39156  1  0  0  0  0
 40 41  1  0  0  0  0
 40 42  1  0  0  0  0
 40103  1  0  0  0  0
 41157  1  0  0  0  0
 41158  1  0  0  0  0
 41159  1  0  0  0  0
 42 43  1  0  0  0  0
 42160  1  0  0  0  0
 42161  1  0  0  0  0
 43 44  1  0  0  0  0
 43162  1  0  0  0  0
 43163  1  0  0  0  0
 44 45  1  0  0  0  0
 44 52  2  0  0  0  0
 45 46  1  0  0  0  0
 45 51  2  0  0  0  0
 46 47  2  0  0  0  0
 46164  1  0  0  0  0
 47 48  1  0  0  0  0
 47165  1  0  0  0  0
 48 49  1  0  0  0  0
 48 50  2  0  0  0  0
 50 51  1  0  0  0  0
 50166  1  0  0  0  0
 51167  1  0  0  0  0
 52 53  1  0  0  0  0
 52103  1  0  0  0  0
 53 54  1  0  0  0  0
 53168  1  0  0  0  0
 53169  1  0  0  0  0
 54 55  1  0  0  0  0
 54102  1  0  0  0  0
 54170  1  0  0  0  0
 55 56  1  0  0  0  0
 55171  1  0  0  0  0
 55172  1  0  0  0  0
 56 57  1  0  0  0  0
 56173  1  0  0  0  0
 56174  1  0  0  0  0
 57 58  1  0  0  0  0
 57101  1  0  0  0  0
 58 59  1  0  0  0  0
 58100  2  0  0  0  0
 59 60  2  0  0  0  0
 59175  1  0  0  0  0
 60 61  1  0  0  0  0
 60176  1  0  0  0  0
 61 62  1  0  0  0  0
 61 99  2  0  0  0  0
 62 63  2  0  0  0  0
 62 64  1  0  0  0  0
 64 65  1  0  0  0  0
 64177  1  0  0  0  0
 65 66  2  0  0  0  0
 65 67  2  0  0  0  0
 65 68  1  0  0  0  0
 68 69  1  0  0  0  0
 68 98  2  0  0  0  0
 69 70  2  0  0  0  0
 69178  1  0  0  0  0
 70 71  1  0  0  0  0
 70179  1  0  0  0  0
 71 72  1  0  0  0  0
 71 90  2  0  0  0  0
 72 73  1  0  0  0  0
 72180  1  0  0  0  0
 73 74  1  0  0  0  0
 73 82  1  0  0  0  0
 73181  1  0  0  0  0
 74 75  1  0  0  0  0
 74182  1  0  0  0  0
 74183  1  0  0  0  0
 75 76  1  0  0  0  0
 75184  1  0  0  0  0
 75185  1  0  0  0  0
 76 77  1  0  0  0  0
 76 81  1  0  0  0  0
 76186  1  0  0  0  0
 77 78  1  0  0  0  0
 77187  1  0  0  0  0
 77188  1  0  0  0  0
 78 79  1  0  0  0  0
 78189  1  0  0  0  0
 78190  1  0  0  0  0
 79 80  1  0  0  0  0
 80 81  1  0  0  0  0
 80191  1  0  0  0  0
 80192  1  0  0  0  0
 81193  1  0  0  0  0
 81194  1  0  0  0  0
 82 83  1  0  0  0  0
 82195  1  0  0  0  0
 82196  1  0  0  0  0
 83 84  1  0  0  0  0
 84 85  1  0  0  0  0
 84 89  2  0  0  0  0
 85 86  2  0  0  0  0
 85197  1  0  0  0  0
 86 87  1  0  0  0  0
 86198  1  0  0  0  0
 87 88  2  0  0  0  0
 87199  1  0  0  0  0
 88 89  1  0  0  0  0
 88200  1  0  0  0  0
 89201  1  0  0  0  0
 90 91  1  0  0  0  0
 90 98  1  0  0  0  0
 91 92  2  0  0  0  0
 91 93  2  0  0  0  0
 91 94  1  0  0  0  0
 94 95  1  0  0  0  0
 94 96  1  0  0  0  0
 94 97  1  0  0  0  0
 98202  1  0  0  0  0
 99100  1  0  0  0  0
 99203  1  0  0  0  0
100204  1  0  0  0  0
101102  1  0  0  0  0
101205  1  0  0  0  0
101206  1  0  0  0  0
102207  1  0  0  0  0
102208  1  0  0  0  0
103209  1  0  0  0  0
103210  1  0  0  0  0
104105  1  0  0  0  0
104211  1  0  0  0  0
104212  1  0  0  0  0
105213  1  0  0  0  0
105214  1  0  0  0  0
106107  1  0  0  0  0
106108  1  0  0  0  0
106109  1  0  0  0  0
107215  1  0  0  0  0
107216  1  0  0  0  0
107217  1  0  0  0  0
108218  1  0  0  0  0
108219  1  0  0  0  0
108220  1  0  0  0  0
109221  1  0  0  0  0
109222  1  0  0  0  0
109223  1  0  0  0  0
110111  1  0  0  0  0
110224  1  0  0  0  0
111225  1  0  0  0  0
112113  1  0  0  0  0
113114  2  0  0  0  0
113226  1  0  0  0  0
M  CHG  1  38   1
M  CHG  1  54   1
M  CHG  1  76   1
M  END
>  <Compound ID>
3218

>  <Uniprot>
Q07817

>  <Target>
BCL-xL

>  <E3 ligase>
VHL

>  <Article DOI>
10.1038/s41467-021-27210-x

>  <Molecular Weight>
1669.577

>  <Exact Mass>
1667.6831

>  <XLogP3>
13.4

>  <Heavy Atom Count>
114

>  <Ring Count>
11

>  <Hydrogen Bond Acceptor Count>
19

>  <Hydrogen Bond Donor Count>
5

>  <Rotatable Bond Count>
33

>  <Topological Polar Surface Area>
263.54001

>  <Molecular Formula>
C84H109ClF3N11O11S4

>  <InChI>
InChI=1S/C84H109ClF3N11O11S4/c1-58(60-20-22-62(23-21-60)77-59(2)89-57-112-77)90-80(104)73-50-68(100)54-99(73)81(105)78(82(3,4)5)92-75(101)18-14-9-7-8-10-15-19-76(102)98-44-40-96(41-45-98)56-83(6)36-34-71(61-24-28-65(85)29-25-61)64(52-83)53-95-38-42-97(43-39-95)67-30-26-63(27-31-67)79(103)93-114(108,109)70-32-33-72(74(51-70)113(106,107)84(86,87)88)91-66(35-37-94-46-48-110-49-47-94)55-111-69-16-12-11-13-17-69/h11-13,16-17,20-33,51,57-58,66,68,73,78,91,100H,7-10,14-15,18-19,34-50,52-56H2,1-6H3,(H,90,104)(H,92,101)(H,93,103)/t58-,66+,68+,73-,78+,83?/m0/s1

>  <InChI Key>
CGIQKSDNJNCLMP-PVVVILJQSA-N

>  <DC50 (nM)>
12.1

>  <Assay (DC50/Dmax)>
Degradation of BCL-xL in 293T cells after 16 h treatment

>  <Name>
PPC10

>  <Dmax (%)>
81

$$$$
3219
  MOE2018           3D

229239  0  0  1  0  0  0  0  0999 V2000
   33.6360   23.9120   -2.7160 C   0  0  0  0  0  0  0  0  0  0  0  0
   34.4100   24.5090   -1.5640 C   0  0  0  0  0  0  0  0  0  0  0  0
   33.8720   25.2940   -0.5760 C   0  0  0  0  0  0  0  0  0  0  0  0
   32.4890   25.7130   -0.3790 C   0  0  0  0  0  0  0  0  0  0  0  0
   31.4430   24.7840   -0.3940 C   0  0  0  0  0  0  0  0  0  0  0  0
   30.1250   25.1890   -0.2110 C   0  0  0  0  0  0  0  0  0  0  0  0
   29.8180   26.5350   -0.0040 C   0  0  0  0  0  0  0  0  0  0  0  0
   28.3620   26.9490    0.1820 C   0  0  2  0  0  0  0  0  0  0  0  0
   27.9590   27.8240   -1.0110 C   0  0  0  0  0  0  0  0  0  0  0  0
   28.2970   27.7990    1.3490 N   0  0  0  0  0  0  0  0  0  0  0  0
   27.5520   27.7290    2.4530 C   0  0  0  0  0  0  0  0  0  0  0  0
   27.7880   28.5900    3.2920 O   0  0  0  0  0  0  0  0  0  0  0  0
   26.4890   26.6340    2.7890 C   0  0  2  0  0  0  0  0  0  0  0  0
   27.0540   25.6440    3.8140 C   0  0  0  0  0  0  0  0  0  0  0  0
   26.2110   24.3910    3.6370 C   0  0  1  0  0  0  0  0  0  0  0  0
   25.0040   24.5110    4.3670 O   0  0  0  0  0  0  0  0  0  0  0  0
   25.9680   24.3880    2.1290 C   0  0  0  0  0  0  0  0  0  0  0  0
   25.8790   25.7970    1.7330 N   0  0  0  0  0  0  0  0  0  0  0  0
   24.9670   26.3590    0.9080 C   0  0  0  0  0  0  0  0  0  0  0  0
   24.9350   27.5830    0.7950 O   0  0  0  0  0  0  0  0  0  0  0  0
   23.8950   25.4980    0.1620 C   0  0  1  0  0  0  0  0  0  0  0  0
   22.5530   25.8620    0.6280 N   0  0  0  0  0  0  0  0  0  0  0  0
   22.1270   25.5700    1.8530 C   0  0  0  0  0  0  0  0  0  0  0  0
   22.7890   24.8790    2.6210 O   0  0  0  0  0  0  0  0  0  0  0  0
   20.7890   26.1600    2.2800 C   0  0  0  0  0  0  0  0  0  0  0  0
   19.5950   25.5280    1.5430 C   0  0  0  0  0  0  0  0  0  0  0  0
   18.3000   26.2880    1.8600 C   0  0  0  0  0  0  0  0  0  0  0  0
   17.1160   25.6980    1.0820 C   0  0  0  0  0  0  0  0  0  0  0  0
   15.8710   26.5770    1.2600 C   0  0  0  0  0  0  0  0  0  0  0  0
   14.6910   26.0340    0.4440 C   0  0  0  0  0  0  0  0  0  0  0  0
   13.5210   27.0270    0.4840 C   0  0  0  0  0  0  0  0  0  0  0  0
   12.3390   26.5250   -0.3590 C   0  0  0  0  0  0  0  0  0  0  0  0
   11.2550   27.6140   -0.4630 C   0  0  0  0  0  0  0  0  0  0  0  0
   10.0400   27.2250   -1.3190 C   0  0  0  0  0  0  0  0  0  0  0  0
    9.8970   26.0610   -1.6710 O   0  0  0  0  0  0  0  0  0  0  0  0
    9.1330   28.1650   -1.6760 N   0  0  0  0  0  0  0  0  0  0  0  0
    9.2390   29.5990   -1.2910 C   0  0  0  0  0  0  0  0  0  0  0  0
    7.8290   30.0730   -0.8580 C   0  0  0  0  0  0  0  0  0  0  0  0
    6.8860   29.8390   -1.9930 N   0  3  0  0  0  0  0  0  0  0  0  0
    5.5340   30.4990   -1.8040 C   0  0  0  0  0  0  0  0  0  0  0  0
    4.8050   30.3960   -0.4060 C   0  0  1  0  0  0  0  0  0  0  0  0
    4.7300   28.9470    0.1310 C   0  0  0  0  0  0  0  0  0  0  0  0
    5.5400   31.2830    0.6580 C   0  0  0  0  0  0  0  0  0  0  0  0
    4.5520   32.0760    1.5320 C   0  0  0  0  0  0  0  0  0  0  0  0
    3.8120   32.9550    0.5430 C   0  0  0  0  0  0  0  0  0  0  0  0
    3.7930   34.3890    0.8140 C   0  0  0  0  0  0  0  0  0  0  0  0
    3.2920   34.8720    2.0310 C   0  0  0  0  0  0  0  0  0  0  0  0
    3.2410   36.2370    2.2870 C   0  0  0  0  0  0  0  0  0  0  0  0
    3.7030   37.1410    1.3300 C   0  0  0  0  0  0  0  0  0  0  0  0
    3.6250   38.8440    1.6390 Cl  0  0  0  0  0  0  0  0  0  0  0  0
    4.2290   36.6740    0.1250 C   0  0  0  0  0  0  0  0  0  0  0  0
    4.2780   35.3080   -0.1270 C   0  0  0  0  0  0  0  0  0  0  0  0
    3.2120   32.3640   -0.5150 C   0  0  0  0  0  0  0  0  0  0  0  0
    2.3680   33.1330   -1.5210 C   0  0  0  0  0  0  0  0  0  0  0  0
    0.9880   32.9310   -1.0710 N   0  3  0  0  0  0  0  0  0  0  0  0
    0.0760   33.2680   -2.2240 C   0  0  0  0  0  0  0  0  0  0  0  0
   -1.4020   33.1080   -1.7800 C   0  0  0  0  0  0  0  0  0  0  0  0
   -1.5960   34.0460   -0.6510 N   0  0  0  0  0  0  0  0  0  0  0  0
   -2.8830   34.5740   -0.4710 C   0  0  0  0  0  0  0  0  0  0  0  0
   -3.5730   34.4210    0.7380 C   0  0  0  0  0  0  0  0  0  0  0  0
   -4.8320   34.9840    0.8900 C   0  0  0  0  0  0  0  0  0  0  0  0
   -5.4340   35.7100   -0.1530 C   0  0  0  0  0  0  0  0  0  0  0  0
   -6.7540   36.3150    0.0440 C   0  0  0  0  0  0  0  0  0  0  0  0
   -7.4050   36.2630    1.0750 O   0  0  0  0  0  0  0  0  0  0  0  0
   -7.3800   36.9950   -0.9250 N   0  0  0  0  0  0  0  0  0  0  0  0
   -8.3670   36.0160   -1.8060 S   0  0  0  0  0  0  0  0  0  0  0  0
   -8.6020   36.6540   -3.0450 O   0  0  0  0  0  0  0  0  0  0  0  0
   -7.7880   34.7250   -1.8700 O   0  0  0  0  0  0  0  0  0  0  0  0
   -9.9190   35.9240   -0.8740 C   0  0  0  0  0  0  0  0  0  0  0  0
  -10.0860   34.9660    0.1280 C   0  0  0  0  0  0  0  0  0  0  0  0
  -11.2770   34.8740    0.8310 C   0  0  0  0  0  0  0  0  0  0  0  0
  -12.3400   35.7260    0.5230 C   0  0  0  0  0  0  0  0  0  0  0  0
  -13.5330   35.5310    1.2260 N   0  0  0  0  0  0  0  0  0  0  0  0
  -14.5400   34.6710    0.5440 C   0  0  2  0  0  0  0  0  0  0  0  0
  -15.8210   34.7610    1.3970 C   0  0  0  0  0  0  0  0  0  0  0  0
  -16.3900   36.1650    1.1720 C   0  0  0  0  0  0  0  0  0  0  0  0
  -17.6010   36.2530    2.0070 N   0  3  0  0  0  0  0  0  0  0  0  0
  -17.8570   37.7040    2.2630 C   0  0  0  0  0  0  0  0  0  0  0  0
  -19.1240   37.8070    3.1460 C   0  0  0  0  0  0  0  0  0  0  0  0
  -20.1950   37.2130    2.4130 O   0  0  0  0  0  0  0  0  0  0  0  0
  -20.0190   35.8270    2.1210 C   0  0  0  0  0  0  0  0  0  0  0  0
  -18.7620   35.7080    1.2270 C   0  0  0  0  0  0  0  0  0  0  0  0
  -14.0160   33.2200    0.4730 C   0  0  0  0  0  0  0  0  0  0  0  0
  -15.2530   32.2730   -0.4880 S   0  0  0  0  0  0  0  0  0  0  0  0
  -14.8600   30.5830   -0.2580 C   0  0  0  0  0  0  0  0  0  0  0  0
  -15.8290   29.6240   -0.5740 C   0  0  0  0  0  0  0  0  0  0  0  0
  -15.5660   28.2720   -0.3910 C   0  0  0  0  0  0  0  0  0  0  0  0
  -14.3320   27.8590    0.1030 C   0  0  0  0  0  0  0  0  0  0  0  0
  -13.3580   28.8060    0.4090 C   0  0  0  0  0  0  0  0  0  0  0  0
  -13.6130   30.1600    0.2280 C   0  0  0  0  0  0  0  0  0  0  0  0
  -12.1860   36.7360   -0.4420 C   0  0  0  0  0  0  0  0  0  0  0  0
  -13.4490   37.9980   -0.7320 S   0  0  0  0  0  0  0  0  0  0  0  0
  -13.0330   38.7890   -1.8400 O   0  0  0  0  0  0  0  0  0  0  0  0
  -14.7320   37.3830   -0.8760 O   0  0  0  0  0  0  0  0  0  0  0  0
  -13.3970   39.0310    0.8590 C   0  0  0  0  0  0  0  0  0  0  0  0
  -13.8780   40.2880    0.7230 F   0  0  0  0  0  0  0  0  0  0  0  0
  -14.1300   38.5130    1.8880 F   0  0  0  0  0  0  0  0  0  0  0  0
  -12.1550   39.1900    1.3730 F   0  0  0  0  0  0  0  0  0  0  0  0
  -10.9790   36.7960   -1.1490 C   0  0  0  0  0  0  0  0  0  0  0  0
   -4.7310   35.8450   -1.3640 C   0  0  0  0  0  0  0  0  0  0  0  0
   -3.4710   35.2860   -1.5220 C   0  0  0  0  0  0  0  0  0  0  0  0
   -0.7440   33.7720    0.5270 C   0  0  0  0  0  0  0  0  0  0  0  0
    0.7190   33.9180    0.0400 C   0  0  0  0  0  0  0  0  0  0  0  0
    3.3140   30.8500   -0.6530 C   0  0  0  0  0  0  0  0  0  0  0  0
    6.7380   28.3570   -2.1800 C   0  0  0  0  0  0  0  0  0  0  0  0
    8.0930   27.8140   -2.6900 C   0  0  0  0  0  0  0  0  0  0  0  0
   23.9720   25.5360   -1.3980 C   0  0  0  0  0  0  0  0  0  0  0  0
   22.9300   24.5720   -2.0070 C   0  0  0  0  0  0  0  0  0  0  0  0
   25.3520   25.0390   -1.8690 C   0  0  0  0  0  0  0  0  0  0  0  0
   23.7230   26.9280   -2.0140 C   0  0  0  0  0  0  0  0  0  0  0  0
   30.8610   27.4660    0.0170 C   0  0  0  0  0  0  0  0  0  0  0  0
   32.1770   27.0590   -0.1650 C   0  0  0  0  0  0  0  0  0  0  0  0
   35.1060   25.7780    0.5120 S   0  0  0  0  0  0  0  0  0  0  0  0
   36.2380   24.8800   -0.4190 C   0  0  0  0  0  0  0  0  0  0  0  0
   35.7440   24.2760   -1.4610 N   0  0  0  0  0  0  0  0  0  0  0  0
   32.5880   24.2010   -2.6380 H   0  0  0  0  0  0  0  0  0  0  0  0
   33.7160   22.8250   -2.6830 H   0  0  0  0  0  0  0  0  0  0  0  0
   34.0450   24.2780   -3.6570 H   0  0  0  0  0  0  0  0  0  0  0  0
   31.6620   23.7380   -0.5500 H   0  0  0  0  0  0  0  0  0  0  0  0
   29.3320   24.4560   -0.2290 H   0  0  0  0  0  0  0  0  0  0  0  0
   27.7220   26.0710    0.2730 H   0  0  0  0  0  0  0  0  0  0  0  0
   28.6210   28.6880   -1.0680 H   0  0  0  0  0  0  0  0  0  0  0  0
   26.9310   28.1620   -0.8830 H   0  0  0  0  0  0  0  0  0  0  0  0
   28.0390   27.2440   -1.9300 H   0  0  0  0  0  0  0  0  0  0  0  0
   28.9290   28.5870    1.3240 H   0  0  0  0  0  0  0  0  0  0  0  0
   25.6790   27.2840    3.1200 H   0  0  0  0  0  0  0  0  0  0  0  0
   26.9530   26.0370    4.8260 H   0  0  0  0  0  0  0  0  0  0  0  0
   28.1040   25.4340    3.6090 H   0  0  0  0  0  0  0  0  0  0  0  0
   26.6740   23.4720    3.9970 H   0  0  0  0  0  0  0  0  0  0  0  0
   24.5670   25.3140    4.0750 H   0  0  0  0  0  0  0  0  0  0  0  0
   25.0380   23.8690    1.8960 H   0  0  0  0  0  0  0  0  0  0  0  0
   26.7950   23.9010    1.6130 H   0  0  0  0  0  0  0  0  0  0  0  0
   24.1220   24.4630    0.4180 H   0  0  0  0  0  0  0  0  0  0  0  0
   21.9330   26.3500   -0.0020 H   0  0  0  0  0  0  0  0  0  0  0  0
   20.6630   25.9980    3.3500 H   0  0  0  0  0  0  0  0  0  0  0  0
   20.7990   27.2300    2.0730 H   0  0  0  0  0  0  0  0  0  0  0  0
   19.7770   25.5640    0.4690 H   0  0  0  0  0  0  0  0  0  0  0  0
   19.4880   24.4900    1.8590 H   0  0  0  0  0  0  0  0  0  0  0  0
   18.0960   26.2170    2.9280 H   0  0  0  0  0  0  0  0  0  0  0  0
   18.4230   27.3350    1.5830 H   0  0  0  0  0  0  0  0  0  0  0  0
   17.3710   25.6460    0.0240 H   0  0  0  0  0  0  0  0  0  0  0  0
   16.9050   24.6960    1.4540 H   0  0  0  0  0  0  0  0  0  0  0  0
   16.0990   27.5890    0.9260 H   0  0  0  0  0  0  0  0  0  0  0  0
   15.5960   26.5960    2.3150 H   0  0  0  0  0  0  0  0  0  0  0  0
   14.3700   25.0810    0.8650 H   0  0  0  0  0  0  0  0  0  0  0  0
   15.0040   25.8880   -0.5900 H   0  0  0  0  0  0  0  0  0  0  0  0
   13.8560   27.9870    0.0910 H   0  0  0  0  0  0  0  0  0  0  0  0
   13.1940   27.1510    1.5170 H   0  0  0  0  0  0  0  0  0  0  0  0
   11.9140   25.6380    0.1110 H   0  0  0  0  0  0  0  0  0  0  0  0
   12.6920   26.2730   -1.3590 H   0  0  0  0  0  0  0  0  0  0  0  0
   11.7080   28.5040   -0.9000 H   0  0  0  0  0  0  0  0  0  0  0  0
   10.9030   27.8410    0.5430 H   0  0  0  0  0  0  0  0  0  0  0  0
    9.9390   29.7110   -0.4630 H   0  0  0  0  0  0  0  0  0  0  0  0
    9.5840   30.1880   -2.1410 H   0  0  0  0  0  0  0  0  0  0  0  0
    7.8560   31.1350   -0.6140 H   0  0  0  0  0  0  0  0  0  0  0  0
    7.5020   29.5080    0.0150 H   0  0  0  0  0  0  0  0  0  0  0  0
    7.2760   30.2690   -2.8190 H   0  0  0  0  0  0  0  0  0  0  0  0
    5.6670   31.5600   -2.0140 H   0  0  0  0  0  0  0  0  0  0  0  0
    4.8630   30.0640   -2.5440 H   0  0  0  0  0  0  0  0  0  0  0  0
    4.2180   28.9420    1.0940 H   0  0  0  0  0  0  0  0  0  0  0  0
    5.7390   28.5520    0.2540 H   0  0  0  0  0  0  0  0  0  0  0  0
    4.1800   28.3260   -0.5760 H   0  0  0  0  0  0  0  0  0  0  0  0
    6.1380   30.6370    1.3010 H   0  0  0  0  0  0  0  0  0  0  0  0
    6.1930   31.9850    0.1400 H   0  0  0  0  0  0  0  0  0  0  0  0
    5.0840   32.6810    2.2660 H   0  0  0  0  0  0  0  0  0  0  0  0
    3.8630   31.4050    2.0450 H   0  0  0  0  0  0  0  0  0  0  0  0
    2.9420   34.1750    2.7780 H   0  0  0  0  0  0  0  0  0  0  0  0
    2.8450   36.5970    3.2250 H   0  0  0  0  0  0  0  0  0  0  0  0
    4.5980   37.3730   -0.6110 H   0  0  0  0  0  0  0  0  0  0  0  0
    4.6940   34.9510   -1.0570 H   0  0  0  0  0  0  0  0  0  0  0  0
    2.5080   32.7350   -2.5260 H   0  0  0  0  0  0  0  0  0  0  0  0
    2.6260   34.1920   -1.5110 H   0  0  0  0  0  0  0  0  0  0  0  0
    0.8400   31.9830   -0.7570 H   0  0  0  0  0  0  0  0  0  0  0  0
    0.2520   34.2970   -2.5370 H   0  0  0  0  0  0  0  0  0  0  0  0
    0.2800   32.5950   -3.0570 H   0  0  0  0  0  0  0  0  0  0  0  0
   -1.5910   32.0840   -1.4580 H   0  0  0  0  0  0  0  0  0  0  0  0
   -2.0730   33.3600   -2.6010 H   0  0  0  0  0  0  0  0  0  0  0  0
   -3.1260   33.8660    1.5500 H   0  0  0  0  0  0  0  0  0  0  0  0
   -5.3580   34.8630    1.8250 H   0  0  0  0  0  0  0  0  0  0  0  0
   -7.2610   37.9840   -1.0940 H   0  0  0  0  0  0  0  0  0  0  0  0
   -9.2770   34.2880    0.3580 H   0  0  0  0  0  0  0  0  0  0  0  0
  -11.3830   34.1420    1.6180 H   0  0  0  0  0  0  0  0  0  0  0  0
  -13.7000   35.9440    2.1320 H   0  0  0  0  0  0  0  0  0  0  0  0
  -14.7350   34.9930   -0.4790 H   0  0  0  0  0  0  0  0  0  0  0  0
  -16.5400   34.0070    1.0780 H   0  0  0  0  0  0  0  0  0  0  0  0
  -15.5840   34.6140    2.4510 H   0  0  0  0  0  0  0  0  0  0  0  0
  -16.6440   36.3070    0.1210 H   0  0  0  0  0  0  0  0  0  0  0  0
  -15.6650   36.9200    1.4760 H   0  0  0  0  0  0  0  0  0  0  0  0
  -17.4850   35.7380    2.8680 H   0  0  0  0  0  0  0  0  0  0  0  0
  -17.0060   38.1460    2.7810 H   0  0  0  0  0  0  0  0  0  0  0  0
  -18.0180   38.2250    1.3190 H   0  0  0  0  0  0  0  0  0  0  0  0
  -19.3490   38.8530    3.3560 H   0  0  0  0  0  0  0  0  0  0  0  0
  -18.9710   37.2730    4.0840 H   0  0  0  0  0  0  0  0  0  0  0  0
  -19.8760   35.2650    3.0440 H   0  0  0  0  0  0  0  0  0  0  0  0
  -20.8910   35.4420    1.5930 H   0  0  0  0  0  0  0  0  0  0  0  0
  -18.9000   36.2850    0.3120 H   0  0  0  0  0  0  0  0  0  0  0  0
  -18.5830   34.6630    0.9740 H   0  0  0  0  0  0  0  0  0  0  0  0
  -13.9190   32.8040    1.4760 H   0  0  0  0  0  0  0  0  0  0  0  0
  -13.0480   33.1920   -0.0270 H   0  0  0  0  0  0  0  0  0  0  0  0
  -16.7870   29.9370   -0.9620 H   0  0  0  0  0  0  0  0  0  0  0  0
  -16.3220   27.5390   -0.6330 H   0  0  0  0  0  0  0  0  0  0  0  0
  -14.1310   26.8080    0.2480 H   0  0  0  0  0  0  0  0  0  0  0  0
  -12.3990   28.4860    0.7890 H   0  0  0  0  0  0  0  0  0  0  0  0
  -12.8500   30.8880    0.4620 H   0  0  0  0  0  0  0  0  0  0  0  0
  -10.8630   37.5350   -1.9280 H   0  0  0  0  0  0  0  0  0  0  0  0
   -5.1780   36.3910   -2.1820 H   0  0  0  0  0  0  0  0  0  0  0  0
   -2.9440   35.4010   -2.4570 H   0  0  0  0  0  0  0  0  0  0  0  0
   -0.9520   34.4900    1.3200 H   0  0  0  0  0  0  0  0  0  0  0  0
   -0.9210   32.7620    0.8960 H   0  0  0  0  0  0  0  0  0  0  0  0
    1.3980   33.7230    0.8700 H   0  0  0  0  0  0  0  0  0  0  0  0
    0.8780   34.9310   -0.3290 H   0  0  0  0  0  0  0  0  0  0  0  0
    2.6630   30.3740    0.0810 H   0  0  0  0  0  0  0  0  0  0  0  0
    3.0060   30.5560   -1.6560 H   0  0  0  0  0  0  0  0  0  0  0  0
    6.4820   27.8860   -1.2310 H   0  0  0  0  0  0  0  0  0  0  0  0
    5.9560   28.1510   -2.9110 H   0  0  0  0  0  0  0  0  0  0  0  0
    8.3390   28.2710   -3.6480 H   0  0  0  0  0  0  0  0  0  0  0  0
    8.0390   26.7320   -2.8070 H   0  0  0  0  0  0  0  0  0  0  0  0
   22.9940   24.6080   -3.0950 H   0  0  0  0  0  0  0  0  0  0  0  0
   21.9300   24.8710   -1.6920 H   0  0  0  0  0  0  0  0  0  0  0  0
   23.1300   23.5570   -1.6640 H   0  0  0  0  0  0  0  0  0  0  0  0
   25.3970   25.0690   -2.9580 H   0  0  0  0  0  0  0  0  0  0  0  0
   25.5060   24.0160   -1.5270 H   0  0  0  0  0  0  0  0  0  0  0  0
   26.1300   25.6810   -1.4560 H   0  0  0  0  0  0  0  0  0  0  0  0
   23.7950   26.8630   -3.1000 H   0  0  0  0  0  0  0  0  0  0  0  0
   24.4700   27.6290   -1.6420 H   0  0  0  0  0  0  0  0  0  0  0  0
   22.7280   27.2760   -1.7360 H   0  0  0  0  0  0  0  0  0  0  0  0
   30.6420   28.5110    0.1760 H   0  0  0  0  0  0  0  0  0  0  0  0
   32.9700   27.7920   -0.1410 H   0  0  0  0  0  0  0  0  0  0  0  0
   37.2840   24.8210   -0.1580 H   0  0  0  0  0  0  0  0  0  0  0  0
  1  2  1  0  0  0  0
  1116  1  0  0  0  0
  1117  1  0  0  0  0
  1118  1  0  0  0  0
  2  3  2  0  0  0  0
  2115  1  0  0  0  0
  3  4  1  0  0  0  0
  3113  1  0  0  0  0
  4  5  1  0  0  0  0
  4112  2  0  0  0  0
  5  6  2  0  0  0  0
  5119  1  0  0  0  0
  6  7  1  0  0  0  0
  6120  1  0  0  0  0
  7  8  1  0  0  0  0
  7111  2  0  0  0  0
  8  9  1  0  0  0  0
  8 10  1  0  0  0  0
  8121  1  0  0  0  0
  9122  1  0  0  0  0
  9123  1  0  0  0  0
  9124  1  0  0  0  0
 10 11  1  0  0  0  0
 10125  1  0  0  0  0
 11 12  2  0  0  0  0
 11 13  1  0  0  0  0
 13 14  1  0  0  0  0
 13 18  1  0  0  0  0
 13126  1  0  0  0  0
 14 15  1  0  0  0  0
 14127  1  0  0  0  0
 14128  1  0  0  0  0
 15 16  1  0  0  0  0
 15 17  1  0  0  0  0
 15129  1  0  0  0  0
 16130  1  0  0  0  0
 17 18  1  0  0  0  0
 17131  1  0  0  0  0
 17132  1  0  0  0  0
 18 19  1  0  0  0  0
 19 20  2  0  0  0  0
 19 21  1  0  0  0  0
 21 22  1  0  0  0  0
 21107  1  0  0  0  0
 21133  1  0  0  0  0
 22 23  1  0  0  0  0
 22134  1  0  0  0  0
 23 24  2  0  0  0  0
 23 25  1  0  0  0  0
 25 26  1  0  0  0  0
 25135  1  0  0  0  0
 25136  1  0  0  0  0
 26 27  1  0  0  0  0
 26137  1  0  0  0  0
 26138  1  0  0  0  0
 27 28  1  0  0  0  0
 27139  1  0  0  0  0
 27140  1  0  0  0  0
 28 29  1  0  0  0  0
 28141  1  0  0  0  0
 28142  1  0  0  0  0
 29 30  1  0  0  0  0
 29143  1  0  0  0  0
 29144  1  0  0  0  0
 30 31  1  0  0  0  0
 30145  1  0  0  0  0
 30146  1  0  0  0  0
 31 32  1  0  0  0  0
 31147  1  0  0  0  0
 31148  1  0  0  0  0
 32 33  1  0  0  0  0
 32149  1  0  0  0  0
 32150  1  0  0  0  0
 33 34  1  0  0  0  0
 33151  1  0  0  0  0
 33152  1  0  0  0  0
 34 35  2  0  0  0  0
 34 36  1  0  0  0  0
 36 37  1  0  0  0  0
 36106  1  0  0  0  0
 37 38  1  0  0  0  0
 37153  1  0  0  0  0
 37154  1  0  0  0  0
 38 39  1  0  0  0  0
 38155  1  0  0  0  0
 38156  1  0  0  0  0
 39 40  1  0  0  0  0
 39105  1  0  0  0  0
 39157  1  0  0  0  0
 40 41  1  0  0  0  0
 40158  1  0  0  0  0
 40159  1  0  0  0  0
 41 42  1  0  0  0  0
 41 43  1  0  0  0  0
 41104  1  0  0  0  0
 42160  1  0  0  0  0
 42161  1  0  0  0  0
 42162  1  0  0  0  0
 43 44  1  0  0  0  0
 43163  1  0  0  0  0
 43164  1  0  0  0  0
 44 45  1  0  0  0  0
 44165  1  0  0  0  0
 44166  1  0  0  0  0
 45 46  1  0  0  0  0
 45 53  2  0  0  0  0
 46 47  1  0  0  0  0
 46 52  2  0  0  0  0
 47 48  2  0  0  0  0
 47167  1  0  0  0  0
 48 49  1  0  0  0  0
 48168  1  0  0  0  0
 49 50  1  0  0  0  0
 49 51  2  0  0  0  0
 51 52  1  0  0  0  0
 51169  1  0  0  0  0
 52170  1  0  0  0  0
 53 54  1  0  0  0  0
 53104  1  0  0  0  0
 54 55  1  0  0  0  0
 54171  1  0  0  0  0
 54172  1  0  0  0  0
 55 56  1  0  0  0  0
 55103  1  0  0  0  0
 55173  1  0  0  0  0
 56 57  1  0  0  0  0
 56174  1  0  0  0  0
 56175  1  0  0  0  0
 57 58  1  0  0  0  0
 57176  1  0  0  0  0
 57177  1  0  0  0  0
 58 59  1  0  0  0  0
 58102  1  0  0  0  0
 59 60  1  0  0  0  0
 59101  2  0  0  0  0
 60 61  2  0  0  0  0
 60178  1  0  0  0  0
 61 62  1  0  0  0  0
 61179  1  0  0  0  0
 62 63  1  0  0  0  0
 62100  2  0  0  0  0
 63 64  2  0  0  0  0
 63 65  1  0  0  0  0
 65 66  1  0  0  0  0
 65180  1  0  0  0  0
 66 67  2  0  0  0  0
 66 68  2  0  0  0  0
 66 69  1  0  0  0  0
 69 70  1  0  0  0  0
 69 99  2  0  0  0  0
 70 71  2  0  0  0  0
 70181  1  0  0  0  0
 71 72  1  0  0  0  0
 71182  1  0  0  0  0
 72 73  1  0  0  0  0
 72 91  2  0  0  0  0
 73 74  1  0  0  0  0
 73183  1  0  0  0  0
 74 75  1  0  0  0  0
 74 83  1  0  0  0  0
 74184  1  0  0  0  0
 75 76  1  0  0  0  0
 75185  1  0  0  0  0
 75186  1  0  0  0  0
 76 77  1  0  0  0  0
 76187  1  0  0  0  0
 76188  1  0  0  0  0
 77 78  1  0  0  0  0
 77 82  1  0  0  0  0
 77189  1  0  0  0  0
 78 79  1  0  0  0  0
 78190  1  0  0  0  0
 78191  1  0  0  0  0
 79 80  1  0  0  0  0
 79192  1  0  0  0  0
 79193  1  0  0  0  0
 80 81  1  0  0  0  0
 81 82  1  0  0  0  0
 81194  1  0  0  0  0
 81195  1  0  0  0  0
 82196  1  0  0  0  0
 82197  1  0  0  0  0
 83 84  1  0  0  0  0
 83198  1  0  0  0  0
 83199  1  0  0  0  0
 84 85  1  0  0  0  0
 85 86  1  0  0  0  0
 85 90  2  0  0  0  0
 86 87  2  0  0  0  0
 86200  1  0  0  0  0
 87 88  1  0  0  0  0
 87201  1  0  0  0  0
 88 89  2  0  0  0  0
 88202  1  0  0  0  0
 89 90  1  0  0  0  0
 89203  1  0  0  0  0
 90204  1  0  0  0  0
 91 92  1  0  0  0  0
 91 99  1  0  0  0  0
 92 93  2  0  0  0  0
 92 94  2  0  0  0  0
 92 95  1  0  0  0  0
 95 96  1  0  0  0  0
 95 97  1  0  0  0  0
 95 98  1  0  0  0  0
 99205  1  0  0  0  0
100101  1  0  0  0  0
100206  1  0  0  0  0
101207  1  0  0  0  0
102103  1  0  0  0  0
102208  1  0  0  0  0
102209  1  0  0  0  0
103210  1  0  0  0  0
103211  1  0  0  0  0
104212  1  0  0  0  0
104213  1  0  0  0  0
105106  1  0  0  0  0
105214  1  0  0  0  0
105215  1  0  0  0  0
106216  1  0  0  0  0
106217  1  0  0  0  0
107108  1  0  0  0  0
107109  1  0  0  0  0
107110  1  0  0  0  0
108218  1  0  0  0  0
108219  1  0  0  0  0
108220  1  0  0  0  0
109221  1  0  0  0  0
109222  1  0  0  0  0
109223  1  0  0  0  0
110224  1  0  0  0  0
110225  1  0  0  0  0
110226  1  0  0  0  0
111112  1  0  0  0  0
111227  1  0  0  0  0
112228  1  0  0  0  0
113114  1  0  0  0  0
114115  2  0  0  0  0
114229  1  0  0  0  0
M  CHG  1  39   1
M  CHG  1  55   1
M  CHG  1  77   1
M  END
>  <Compound ID>
3219

>  <Uniprot>
Q07817

>  <Target>
BCL-xL

>  <E3 ligase>
VHL

>  <Article DOI>
10.1038/s41467-021-27210-x

>  <Molecular Weight>
1683.604

>  <Exact Mass>
1681.6989

>  <XLogP3>
13.94

>  <Heavy Atom Count>
115

>  <Ring Count>
11

>  <Hydrogen Bond Acceptor Count>
19

>  <Hydrogen Bond Donor Count>
5

>  <Rotatable Bond Count>
34

>  <Topological Polar Surface Area>
263.54001

>  <Molecular Formula>
C85H111ClF3N11O11S4

>  <InChI>
InChI=1S/C85H111ClF3N11O11S4/c1-59(61-21-23-63(24-22-61)78-60(2)90-58-113-78)91-81(105)74-51-69(101)55-100(74)82(106)79(83(3,4)5)93-76(102)19-15-10-8-7-9-11-16-20-77(103)99-45-41-97(42-46-99)57-84(6)37-35-72(62-25-29-66(86)30-26-62)65(53-84)54-96-39-43-98(44-40-96)68-31-27-64(28-32-68)80(104)94-115(109,110)71-33-34-73(75(52-71)114(107,108)85(87,88)89)92-67(36-38-95-47-49-111-50-48-95)56-112-70-17-13-12-14-18-70/h12-14,17-18,21-34,52,58-59,67,69,74,79,92,101H,7-11,15-16,19-20,35-51,53-57H2,1-6H3,(H,91,105)(H,93,102)(H,94,104)/t59-,67+,69+,74-,79+,84?/m0/s1

>  <InChI Key>
UQQFHLGCSOEWFT-SPQPUINASA-N

>  <Assay (DC50/Dmax)>
Degradation of BCL-xL in 293T cells after 16 h treatment

>  <Name>
PPC11

>  <Dmax (%)>
38

$$$$
3221
  MOE2018           3D

220230  0  0  1  0  0  0  0  0999 V2000
   20.2720  -32.5630   -0.1190 C   0  0  0  0  0  0  0  0  0  0  0  0
   19.5130  -33.0740   -1.3210 C   0  0  0  0  0  0  0  0  0  0  0  0
   18.1470  -33.0670   -1.4560 C   0  0  0  0  0  0  0  0  0  0  0  0
   17.1280  -32.5680   -0.5400 C   0  0  0  0  0  0  0  0  0  0  0  0
   17.2330  -31.2970    0.0350 C   0  0  0  0  0  0  0  0  0  0  0  0
   16.2610  -30.8280    0.9110 C   0  0  0  0  0  0  0  0  0  0  0  0
   15.1490  -31.6110    1.2220 C   0  0  0  0  0  0  0  0  0  0  0  0
   14.1030  -31.0720    2.1890 C   0  0  2  0  0  0  0  0  0  0  0  0
   14.1850  -31.8900    3.4820 C   0  0  0  0  0  0  0  0  0  0  0  0
   12.7730  -31.2970    1.6540 N   0  0  0  0  0  0  0  0  0  0  0  0
   12.2120  -30.7360    0.5840 C   0  0  0  0  0  0  0  0  0  0  0  0
   11.0170  -30.9440    0.4140 O   0  0  0  0  0  0  0  0  0  0  0  0
   13.0120  -29.7940   -0.3710 C   0  0  2  0  0  0  0  0  0  0  0  0
   13.1680  -28.3930    0.2460 C   0  0  0  0  0  0  0  0  0  0  0  0
   13.0670  -27.4260   -0.9280 C   0  0  1  0  0  0  0  0  0  0  0  0
   14.3420  -27.2880   -1.5210 O   0  0  0  0  0  0  0  0  0  0  0  0
   12.0990  -28.1470   -1.8640 C   0  0  0  0  0  0  0  0  0  0  0  0
   12.3890  -29.5620   -1.6820 N   0  0  0  0  0  0  0  0  0  0  0  0
   12.0120  -30.4970   -2.5790 C   0  0  0  0  0  0  0  0  0  0  0  0
   11.2860  -30.1670   -3.5170 O   0  0  0  0  0  0  0  0  0  0  0  0
   12.4930  -31.9770   -2.4560 C   0  0  1  0  0  0  0  0  0  0  0  0
   11.3350  -32.8750   -2.3690 N   0  0  0  0  0  0  0  0  0  0  0  0
   11.1850  -33.7890   -1.4150 C   0  0  0  0  0  0  0  0  0  0  0  0
   12.0940  -34.1040   -0.6540 O   0  0  0  0  0  0  0  0  0  0  0  0
    9.7990  -34.4000   -1.2530 C   0  0  0  0  0  0  0  0  0  0  0  0
    8.8090  -33.3960   -0.6390 C   0  0  0  0  0  0  0  0  0  0  0  0
    7.4430  -34.0330   -0.3500 C   0  0  0  0  0  0  0  0  0  0  0  0
    6.4910  -32.9700    0.2130 C   0  0  0  0  0  0  0  0  0  0  0  0
    5.1450  -33.5840    0.6240 C   0  0  0  0  0  0  0  0  0  0  0  0
    4.1900  -32.4860    1.1270 C   0  0  0  0  0  0  0  0  0  0  0  0
    2.8440  -33.0020    1.6550 C   0  0  0  0  0  0  0  0  0  0  0  0
    2.5410  -34.1800    1.5140 O   0  0  0  0  0  0  0  0  0  0  0  0
    1.9720  -32.1420    2.2270 N   0  0  0  0  0  0  0  0  0  0  0  0
    2.0010  -30.6760    2.0280 C   0  0  0  0  0  0  0  0  0  0  0  0
    0.8850  -30.3880    0.9870 C   0  0  0  0  0  0  0  0  0  0  0  0
   -0.4280  -30.8470    1.5570 N   0  3  0  0  0  0  0  0  0  0  0  0
   -1.6220  -30.4500    0.7050 C   0  0  0  0  0  0  0  0  0  0  0  0
   -1.5850  -30.6790   -0.8620 C   0  0  2  0  0  0  0  0  0  0  0  0
   -1.1560  -32.1160   -1.2380 C   0  0  0  0  0  0  0  0  0  0  0  0
   -0.6610  -29.7190   -1.6550 C   0  0  0  0  0  0  0  0  0  0  0  0
   -0.9970  -28.2600   -1.2950 C   0  0  0  0  0  0  0  0  0  0  0  0
   -2.4590  -28.0190   -1.6350 C   0  0  0  0  0  0  0  0  0  0  0  0
   -2.7530  -26.6330   -1.9890 C   0  0  0  0  0  0  0  0  0  0  0  0
   -2.5980  -25.6080   -1.0450 C   0  0  0  0  0  0  0  0  0  0  0  0
   -2.9060  -24.2930   -1.3680 C   0  0  0  0  0  0  0  0  0  0  0  0
   -3.3620  -23.9790   -2.6500 C   0  0  0  0  0  0  0  0  0  0  0  0
   -3.7660  -22.3430   -3.0490 Cl  0  0  0  0  0  0  0  0  0  0  0  0
   -3.4880  -24.9840   -3.6100 C   0  0  0  0  0  0  0  0  0  0  0  0
   -3.1780  -26.2980   -3.2820 C   0  0  0  0  0  0  0  0  0  0  0  0
   -3.3850  -29.0130   -1.6520 C   0  0  0  0  0  0  0  0  0  0  0  0
   -4.8190  -28.7830   -2.1240 C   0  0  0  0  0  0  0  0  0  0  0  0
   -5.6330  -28.5550   -0.9230 N   0  3  0  0  0  0  0  0  0  0  0  0
   -7.0580  -28.8970   -1.2880 C   0  0  0  0  0  0  0  0  0  0  0  0
   -7.9950  -28.6160   -0.0820 C   0  0  0  0  0  0  0  0  0  0  0  0
   -7.8580  -27.1730    0.2240 N   0  0  0  0  0  0  0  0  0  0  0  0
   -8.9540  -26.5320    0.8220 C   0  0  0  0  0  0  0  0  0  0  0  0
  -10.1820  -26.5290    0.1500 C   0  0  0  0  0  0  0  0  0  0  0  0
  -11.2720  -25.8670    0.6970 C   0  0  0  0  0  0  0  0  0  0  0  0
  -11.1650  -25.1950    1.9300 C   0  0  0  0  0  0  0  0  0  0  0  0
  -12.2910  -24.4720    2.5230 C   0  0  0  0  0  0  0  0  0  0  0  0
  -12.1440  -23.5300    3.2820 O   0  0  0  0  0  0  0  0  0  0  0  0
  -13.5530  -24.8800    2.2460 N   0  0  0  0  0  0  0  0  0  0  0  0
  -14.7950  -23.8010    2.3720 S   0  0  0  0  0  0  0  0  0  0  0  0
  -14.5170  -22.7000    1.5280 O   0  0  0  0  0  0  0  0  0  0  0  0
  -15.0380  -23.5120    3.7370 O   0  0  0  0  0  0  0  0  0  0  0  0
  -16.2320  -24.6760    1.7190 C   0  0  0  0  0  0  0  0  0  0  0  0
  -17.1070  -25.3390    2.5800 C   0  0  0  0  0  0  0  0  0  0  0  0
  -18.2610  -25.9300    2.0920 C   0  0  0  0  0  0  0  0  0  0  0  0
  -18.5730  -25.8550    0.7340 C   0  0  0  0  0  0  0  0  0  0  0  0
  -19.8190  -26.3900    0.3820 N   0  0  0  0  0  0  0  0  0  0  0  0
  -21.0090  -25.5260    0.2270 C   0  0  2  0  0  0  0  0  0  0  0  0
  -21.0960  -24.5420    1.4100 C   0  0  0  0  0  0  0  0  0  0  0  0
  -22.1200  -23.4650    1.0210 C   0  0  0  0  0  0  0  0  0  0  0  0
  -21.9920  -22.4130    2.0480 N   0  3  0  0  0  0  0  0  0  0  0  0
  -23.2740  -21.6380    2.0820 C   0  0  0  0  0  0  0  0  0  0  0  0
  -23.1330  -20.5410    3.1640 C   0  0  0  0  0  0  0  0  0  0  0  0
  -22.0420  -19.7100    2.7750 O   0  0  0  0  0  0  0  0  0  0  0  0
  -20.7800  -20.3710    2.7210 C   0  0  0  0  0  0  0  0  0  0  0  0
  -20.8930  -21.4660    1.6350 C   0  0  0  0  0  0  0  0  0  0  0  0
  -22.2130  -26.4810    0.1550 C   0  0  0  0  0  0  0  0  0  0  0  0
  -22.0740  -27.2720   -1.4870 S   0  0  0  0  0  0  0  0  0  0  0  0
  -23.2430  -28.5740   -1.5400 C   0  0  0  0  0  0  0  0  0  0  0  0
  -23.2770  -29.3830   -2.6810 C   0  0  0  0  0  0  0  0  0  0  0  0
  -24.1840  -30.4320   -2.7740 C   0  0  0  0  0  0  0  0  0  0  0  0
  -25.0700  -30.6850   -1.7310 C   0  0  0  0  0  0  0  0  0  0  0  0
  -25.0450  -29.8850   -0.5920 C   0  0  0  0  0  0  0  0  0  0  0  0
  -24.1390  -28.8340   -0.4920 C   0  0  0  0  0  0  0  0  0  0  0  0
  -17.6780  -25.2500   -0.1710 C   0  0  0  0  0  0  0  0  0  0  0  0
  -17.9630  -25.1700   -1.9560 S   0  0  0  0  0  0  0  0  0  0  0  0
  -19.2600  -24.6240   -2.1840 O   0  0  0  0  0  0  0  0  0  0  0  0
  -16.8910  -24.4320   -2.5340 O   0  0  0  0  0  0  0  0  0  0  0  0
  -17.8700  -26.9830   -2.5130 C   0  0  0  0  0  0  0  0  0  0  0  0
  -18.8130  -27.7800   -1.9640 F   0  0  0  0  0  0  0  0  0  0  0  0
  -17.9930  -27.1720   -3.8460 F   0  0  0  0  0  0  0  0  0  0  0  0
  -16.6990  -27.5870   -2.1860 F   0  0  0  0  0  0  0  0  0  0  0  0
  -16.5250  -24.6510    0.3510 C   0  0  0  0  0  0  0  0  0  0  0  0
   -9.9260  -25.2120    2.5920 C   0  0  0  0  0  0  0  0  0  0  0  0
   -8.8320  -25.8730    2.0520 C   0  0  0  0  0  0  0  0  0  0  0  0
   -6.4880  -26.7520    0.5960 C   0  0  0  0  0  0  0  0  0  0  0  0
   -5.5780  -27.0800   -0.6150 C   0  0  0  0  0  0  0  0  0  0  0  0
   -3.0420  -30.4870   -1.3990 C   0  0  0  0  0  0  0  0  0  0  0  0
   -0.3860  -32.3490    1.7570 C   0  0  0  0  0  0  0  0  0  0  0  0
    0.7070  -32.6540    2.8090 C   0  0  0  0  0  0  0  0  0  0  0  0
   13.4770  -32.4150   -3.5930 C   0  0  0  0  0  0  0  0  0  0  0  0
   14.7300  -31.5160   -3.5730 C   0  0  0  0  0  0  0  0  0  0  0  0
   12.8740  -32.3640   -5.0120 C   0  0  0  0  0  0  0  0  0  0  0  0
   13.9600  -33.8640   -3.3750 C   0  0  0  0  0  0  0  0  0  0  0  0
   15.0300  -32.8740    0.6390 C   0  0  0  0  0  0  0  0  0  0  0  0
   16.0110  -33.3480   -0.2240 C   0  0  0  0  0  0  0  0  0  0  0  0
   17.7140  -33.7680   -2.9600 S   0  0  0  0  0  0  0  0  0  0  0  0
   19.3830  -33.9940   -3.3030 C   0  0  0  0  0  0  0  0  0  0  0  0
   20.1990  -33.5910   -2.3720 N   0  0  0  0  0  0  0  0  0  0  0  0
   19.5670  -32.1870    0.6230 H   0  0  0  0  0  0  0  0  0  0  0  0
   20.9400  -31.7590   -0.4260 H   0  0  0  0  0  0  0  0  0  0  0  0
   20.8560  -33.3750    0.3140 H   0  0  0  0  0  0  0  0  0  0  0  0
   18.0800  -30.6720   -0.2050 H   0  0  0  0  0  0  0  0  0  0  0  0
   16.3680  -29.8490    1.3550 H   0  0  0  0  0  0  0  0  0  0  0  0
   14.2830  -30.0090    2.3520 H   0  0  0  0  0  0  0  0  0  0  0  0
   13.9980  -32.9410    3.2600 H   0  0  0  0  0  0  0  0  0  0  0  0
   13.4370  -31.5290    4.1880 H   0  0  0  0  0  0  0  0  0  0  0  0
   15.1780  -31.7820    3.9180 H   0  0  0  0  0  0  0  0  0  0  0  0
   12.2010  -31.9620    2.1550 H   0  0  0  0  0  0  0  0  0  0  0  0
   13.9570  -30.3200   -0.5070 H   0  0  0  0  0  0  0  0  0  0  0  0
   14.1360  -28.2970    0.7380 H   0  0  0  0  0  0  0  0  0  0  0  0
   12.3740  -28.2020    0.9680 H   0  0  0  0  0  0  0  0  0  0  0  0
   12.7340  -26.4220   -0.6670 H   0  0  0  0  0  0  0  0  0  0  0  0
   14.6490  -28.1660   -1.7570 H   0  0  0  0  0  0  0  0  0  0  0  0
   12.2720  -27.8500   -2.8980 H   0  0  0  0  0  0  0  0  0  0  0  0
   11.0670  -27.9290   -1.5910 H   0  0  0  0  0  0  0  0  0  0  0  0
   13.0720  -32.0470   -1.5350 H   0  0  0  0  0  0  0  0  0  0  0  0
   10.6140  -32.7940   -3.0710 H   0  0  0  0  0  0  0  0  0  0  0  0
    9.4310  -34.7070   -2.2320 H   0  0  0  0  0  0  0  0  0  0  0  0
    9.8700  -35.2710   -0.6020 H   0  0  0  0  0  0  0  0  0  0  0  0
    9.2250  -33.0190    0.2950 H   0  0  0  0  0  0  0  0  0  0  0  0
    8.6710  -32.5690   -1.3350 H   0  0  0  0  0  0  0  0  0  0  0  0
    7.0290  -34.4390   -1.2730 H   0  0  0  0  0  0  0  0  0  0  0  0
    7.5630  -34.8350    0.3780 H   0  0  0  0  0  0  0  0  0  0  0  0
    6.3160  -32.2110   -0.5490 H   0  0  0  0  0  0  0  0  0  0  0  0
    6.9520  -32.5080    1.0860 H   0  0  0  0  0  0  0  0  0  0  0  0
    5.3090  -34.3110    1.4200 H   0  0  0  0  0  0  0  0  0  0  0  0
    4.6990  -34.0820   -0.2370 H   0  0  0  0  0  0  0  0  0  0  0  0
    3.9920  -31.8030    0.3010 H   0  0  0  0  0  0  0  0  0  0  0  0
    4.6870  -31.9460    1.9330 H   0  0  0  0  0  0  0  0  0  0  0  0
    1.7940  -30.1580    2.9650 H   0  0  0  0  0  0  0  0  0  0  0  0
    2.9720  -30.3610    1.6460 H   0  0  0  0  0  0  0  0  0  0  0  0
    1.0940  -30.9290    0.0640 H   0  0  0  0  0  0  0  0  0  0  0  0
    0.8420  -29.3190    0.7800 H   0  0  0  0  0  0  0  0  0  0  0  0
   -0.5550  -30.3810    2.4440 H   0  0  0  0  0  0  0  0  0  0  0  0
   -2.4790  -31.0060    1.0850 H   0  0  0  0  0  0  0  0  0  0  0  0
   -1.7820  -29.3840    0.8640 H   0  0  0  0  0  0  0  0  0  0  0  0
   -1.1470  -32.2200   -2.3230 H   0  0  0  0  0  0  0  0  0  0  0  0
   -1.8610  -32.8290   -0.8100 H   0  0  0  0  0  0  0  0  0  0  0  0
   -0.1580  -32.3120   -0.8460 H   0  0  0  0  0  0  0  0  0  0  0  0
    0.3790  -29.9250   -1.4010 H   0  0  0  0  0  0  0  0  0  0  0  0
   -0.8110  -29.8720   -2.7240 H   0  0  0  0  0  0  0  0  0  0  0  0
   -0.3660  -27.5820   -1.8700 H   0  0  0  0  0  0  0  0  0  0  0  0
   -0.8320  -28.0940   -0.2300 H   0  0  0  0  0  0  0  0  0  0  0  0
   -2.2350  -25.8440   -0.0560 H   0  0  0  0  0  0  0  0  0  0  0  0
   -2.7930  -23.5140   -0.6290 H   0  0  0  0  0  0  0  0  0  0  0  0
   -3.8260  -24.7410   -4.6060 H   0  0  0  0  0  0  0  0  0  0  0  0
   -3.2650  -27.0700   -4.0320 H   0  0  0  0  0  0  0  0  0  0  0  0
   -5.1820  -29.6590   -2.6620 H   0  0  0  0  0  0  0  0  0  0  0  0
   -4.8630  -27.9120   -2.7780 H   0  0  0  0  0  0  0  0  0  0  0  0
   -5.3090  -29.1020   -0.1380 H   0  0  0  0  0  0  0  0  0  0  0  0
   -7.3690  -28.2890   -2.1370 H   0  0  0  0  0  0  0  0  0  0  0  0
   -7.1190  -29.9520   -1.5550 H   0  0  0  0  0  0  0  0  0  0  0  0
   -7.6930  -29.2140    0.7780 H   0  0  0  0  0  0  0  0  0  0  0  0
   -9.0270  -28.8500   -0.3430 H   0  0  0  0  0  0  0  0  0  0  0  0
  -10.2810  -27.0420   -0.7950 H   0  0  0  0  0  0  0  0  0  0  0  0
  -12.2150  -25.8670    0.1700 H   0  0  0  0  0  0  0  0  0  0  0  0
  -13.7310  -25.8340    1.9660 H   0  0  0  0  0  0  0  0  0  0  0  0
  -16.8830  -25.3920    3.6350 H   0  0  0  0  0  0  0  0  0  0  0  0
  -18.9230  -26.4520    2.7670 H   0  0  0  0  0  0  0  0  0  0  0  0
  -19.9060  -27.3850    0.2310 H   0  0  0  0  0  0  0  0  0  0  0  0
  -20.9720  -24.9100   -0.6710 H   0  0  0  0  0  0  0  0  0  0  0  0
  -21.4250  -25.0640    2.3090 H   0  0  0  0  0  0  0  0  0  0  0  0
  -20.1230  -24.0860    1.5900 H   0  0  0  0  0  0  0  0  0  0  0  0
  -23.1280  -23.8790    1.0230 H   0  0  0  0  0  0  0  0  0  0  0  0
  -21.8940  -23.0630    0.0330 H   0  0  0  0  0  0  0  0  0  0  0  0
  -21.7890  -22.8240    2.9480 H   0  0  0  0  0  0  0  0  0  0  0  0
  -23.4560  -21.1790    1.1100 H   0  0  0  0  0  0  0  0  0  0  0  0
  -24.1020  -22.3010    2.3320 H   0  0  0  0  0  0  0  0  0  0  0  0
  -22.9300  -20.9960    4.1340 H   0  0  0  0  0  0  0  0  0  0  0  0
  -24.0490  -19.9530    3.2230 H   0  0  0  0  0  0  0  0  0  0  0  0
  -19.9960  -19.6610    2.4570 H   0  0  0  0  0  0  0  0  0  0  0  0
  -20.5520  -20.8230    3.6860 H   0  0  0  0  0  0  0  0  0  0  0  0
  -19.9500  -22.0060    1.5530 H   0  0  0  0  0  0  0  0  0  0  0  0
  -21.1360  -21.0120    0.6740 H   0  0  0  0  0  0  0  0  0  0  0  0
  -23.1490  -25.9280    0.2380 H   0  0  0  0  0  0  0  0  0  0  0  0
  -22.1600  -27.2270    0.9480 H   0  0  0  0  0  0  0  0  0  0  0  0
  -22.5940  -29.1910   -3.4950 H   0  0  0  0  0  0  0  0  0  0  0  0
  -24.2010  -31.0520   -3.6580 H   0  0  0  0  0  0  0  0  0  0  0  0
  -25.7750  -31.5000   -1.8050 H   0  0  0  0  0  0  0  0  0  0  0  0
  -25.7320  -30.0810    0.2180 H   0  0  0  0  0  0  0  0  0  0  0  0
  -24.1250  -28.2170    0.3940 H   0  0  0  0  0  0  0  0  0  0  0  0
  -15.8420  -24.1550   -0.3220 H   0  0  0  0  0  0  0  0  0  0  0  0
   -9.8230  -24.7010    3.5380 H   0  0  0  0  0  0  0  0  0  0  0  0
   -7.8890  -25.8790    2.5790 H   0  0  0  0  0  0  0  0  0  0  0  0
   -6.4670  -25.6820    0.8030 H   0  0  0  0  0  0  0  0  0  0  0  0
   -6.1530  -27.2990    1.4770 H   0  0  0  0  0  0  0  0  0  0  0  0
   -4.5510  -26.7990   -0.3800 H   0  0  0  0  0  0  0  0  0  0  0  0
   -5.9190  -26.5180   -1.4840 H   0  0  0  0  0  0  0  0  0  0  0  0
   -3.7410  -30.8880   -0.6650 H   0  0  0  0  0  0  0  0  0  0  0  0
   -3.1450  -31.0360   -2.3350 H   0  0  0  0  0  0  0  0  0  0  0  0
   -1.3530  -32.7030    2.1130 H   0  0  0  0  0  0  0  0  0  0  0  0
   -0.1430  -32.8420    0.8160 H   0  0  0  0  0  0  0  0  0  0  0  0
    0.7760  -33.7270    2.9860 H   0  0  0  0  0  0  0  0  0  0  0  0
    0.4860  -32.1450    3.7470 H   0  0  0  0  0  0  0  0  0  0  0  0
   15.4110  -31.8250   -4.3660 H   0  0  0  0  0  0  0  0  0  0  0  0
   15.2290  -31.6090   -2.6080 H   0  0  0  0  0  0  0  0  0  0  0  0
   14.4350  -30.4780   -3.7310 H   0  0  0  0  0  0  0  0  0  0  0  0
   13.6230  -32.6830   -5.7370 H   0  0  0  0  0  0  0  0  0  0  0  0
   12.5610  -31.3440   -5.2370 H   0  0  0  0  0  0  0  0  0  0  0  0
   12.0120  -33.0290   -5.0640 H   0  0  0  0  0  0  0  0  0  0  0  0
   14.6420  -34.1440   -4.1780 H   0  0  0  0  0  0  0  0  0  0  0  0
   13.1020  -34.5370   -3.3750 H   0  0  0  0  0  0  0  0  0  0  0  0
   14.4770  -33.9350   -2.4180 H   0  0  0  0  0  0  0  0  0  0  0  0
   14.1690  -33.4870    0.8600 H   0  0  0  0  0  0  0  0  0  0  0  0
   15.9090  -34.3320   -0.6570 H   0  0  0  0  0  0  0  0  0  0  0  0
   19.7300  -34.4380   -4.2240 H   0  0  0  0  0  0  0  0  0  0  0  0
  1  2  1  0  0  0  0
  1113  1  0  0  0  0
  1114  1  0  0  0  0
  1115  1  0  0  0  0
  2  3  2  0  0  0  0
  2112  1  0  0  0  0
  3  4  1  0  0  0  0
  3110  1  0  0  0  0
  4  5  1  0  0  0  0
  4109  2  0  0  0  0
  5  6  2  0  0  0  0
  5116  1  0  0  0  0
  6  7  1  0  0  0  0
  6117  1  0  0  0  0
  7  8  1  0  0  0  0
  7108  2  0  0  0  0
  8  9  1  0  0  0  0
  8 10  1  0  0  0  0
  8118  1  0  0  0  0
  9119  1  0  0  0  0
  9120  1  0  0  0  0
  9121  1  0  0  0  0
 10 11  1  0  0  0  0
 10122  1  0  0  0  0
 11 12  2  0  0  0  0
 11 13  1  0  0  0  0
 13 14  1  0  0  0  0
 13 18  1  0  0  0  0
 13123  1  0  0  0  0
 14 15  1  0  0  0  0
 14124  1  0  0  0  0
 14125  1  0  0  0  0
 15 16  1  0  0  0  0
 15 17  1  0  0  0  0
 15126  1  0  0  0  0
 16127  1  0  0  0  0
 17 18  1  0  0  0  0
 17128  1  0  0  0  0
 17129  1  0  0  0  0
 18 19  1  0  0  0  0
 19 20  2  0  0  0  0
 19 21  1  0  0  0  0
 21 22  1  0  0  0  0
 21104  1  0  0  0  0
 21130  1  0  0  0  0
 22 23  1  0  0  0  0
 22131  1  0  0  0  0
 23 24  2  0  0  0  0
 23 25  1  0  0  0  0
 25 26  1  0  0  0  0
 25132  1  0  0  0  0
 25133  1  0  0  0  0
 26 27  1  0  0  0  0
 26134  1  0  0  0  0
 26135  1  0  0  0  0
 27 28  1  0  0  0  0
 27136  1  0  0  0  0
 27137  1  0  0  0  0
 28 29  1  0  0  0  0
 28138  1  0  0  0  0
 28139  1  0  0  0  0
 29 30  1  0  0  0  0
 29140  1  0  0  0  0
 29141  1  0  0  0  0
 30 31  1  0  0  0  0
 30142  1  0  0  0  0
 30143  1  0  0  0  0
 31 32  2  0  0  0  0
 31 33  1  0  0  0  0
 33 34  1  0  0  0  0
 33103  1  0  0  0  0
 34 35  1  0  0  0  0
 34144  1  0  0  0  0
 34145  1  0  0  0  0
 35 36  1  0  0  0  0
 35146  1  0  0  0  0
 35147  1  0  0  0  0
 36 37  1  0  0  0  0
 36102  1  0  0  0  0
 36148  1  0  0  0  0
 37 38  1  0  0  0  0
 37149  1  0  0  0  0
 37150  1  0  0  0  0
 38 39  1  0  0  0  0
 38 40  1  0  0  0  0
 38101  1  0  0  0  0
 39151  1  0  0  0  0
 39152  1  0  0  0  0
 39153  1  0  0  0  0
 40 41  1  0  0  0  0
 40154  1  0  0  0  0
 40155  1  0  0  0  0
 41 42  1  0  0  0  0
 41156  1  0  0  0  0
 41157  1  0  0  0  0
 42 43  1  0  0  0  0
 42 50  2  0  0  0  0
 43 44  1  0  0  0  0
 43 49  2  0  0  0  0
 44 45  2  0  0  0  0
 44158  1  0  0  0  0
 45 46  1  0  0  0  0
 45159  1  0  0  0  0
 46 47  1  0  0  0  0
 46 48  2  0  0  0  0
 48 49  1  0  0  0  0
 48160  1  0  0  0  0
 49161  1  0  0  0  0
 50 51  1  0  0  0  0
 50101  1  0  0  0  0
 51 52  1  0  0  0  0
 51162  1  0  0  0  0
 51163  1  0  0  0  0
 52 53  1  0  0  0  0
 52100  1  0  0  0  0
 52164  1  0  0  0  0
 53 54  1  0  0  0  0
 53165  1  0  0  0  0
 53166  1  0  0  0  0
 54 55  1  0  0  0  0
 54167  1  0  0  0  0
 54168  1  0  0  0  0
 55 56  1  0  0  0  0
 55 99  1  0  0  0  0
 56 57  1  0  0  0  0
 56 98  2  0  0  0  0
 57 58  2  0  0  0  0
 57169  1  0  0  0  0
 58 59  1  0  0  0  0
 58170  1  0  0  0  0
 59 60  1  0  0  0  0
 59 97  2  0  0  0  0
 60 61  2  0  0  0  0
 60 62  1  0  0  0  0
 62 63  1  0  0  0  0
 62171  1  0  0  0  0
 63 64  2  0  0  0  0
 63 65  2  0  0  0  0
 63 66  1  0  0  0  0
 66 67  1  0  0  0  0
 66 96  2  0  0  0  0
 67 68  2  0  0  0  0
 67172  1  0  0  0  0
 68 69  1  0  0  0  0
 68173  1  0  0  0  0
 69 70  1  0  0  0  0
 69 88  2  0  0  0  0
 70 71  1  0  0  0  0
 70174  1  0  0  0  0
 71 72  1  0  0  0  0
 71 80  1  0  0  0  0
 71175  1  0  0  0  0
 72 73  1  0  0  0  0
 72176  1  0  0  0  0
 72177  1  0  0  0  0
 73 74  1  0  0  0  0
 73178  1  0  0  0  0
 73179  1  0  0  0  0
 74 75  1  0  0  0  0
 74 79  1  0  0  0  0
 74180  1  0  0  0  0
 75 76  1  0  0  0  0
 75181  1  0  0  0  0
 75182  1  0  0  0  0
 76 77  1  0  0  0  0
 76183  1  0  0  0  0
 76184  1  0  0  0  0
 77 78  1  0  0  0  0
 78 79  1  0  0  0  0
 78185  1  0  0  0  0
 78186  1  0  0  0  0
 79187  1  0  0  0  0
 79188  1  0  0  0  0
 80 81  1  0  0  0  0
 80189  1  0  0  0  0
 80190  1  0  0  0  0
 81 82  1  0  0  0  0
 82 83  1  0  0  0  0
 82 87  2  0  0  0  0
 83 84  2  0  0  0  0
 83191  1  0  0  0  0
 84 85  1  0  0  0  0
 84192  1  0  0  0  0
 85 86  2  0  0  0  0
 85193  1  0  0  0  0
 86 87  1  0  0  0  0
 86194  1  0  0  0  0
 87195  1  0  0  0  0
 88 89  1  0  0  0  0
 88 96  1  0  0  0  0
 89 90  2  0  0  0  0
 89 91  2  0  0  0  0
 89 92  1  0  0  0  0
 92 93  1  0  0  0  0
 92 94  1  0  0  0  0
 92 95  1  0  0  0  0
 96196  1  0  0  0  0
 97 98  1  0  0  0  0
 97197  1  0  0  0  0
 98198  1  0  0  0  0
 99100  1  0  0  0  0
 99199  1  0  0  0  0
 99200  1  0  0  0  0
100201  1  0  0  0  0
100202  1  0  0  0  0
101203  1  0  0  0  0
101204  1  0  0  0  0
102103  1  0  0  0  0
102205  1  0  0  0  0
102206  1  0  0  0  0
103207  1  0  0  0  0
103208  1  0  0  0  0
104105  1  0  0  0  0
104106  1  0  0  0  0
104107  1  0  0  0  0
105209  1  0  0  0  0
105210  1  0  0  0  0
105211  1  0  0  0  0
106212  1  0  0  0  0
106213  1  0  0  0  0
106214  1  0  0  0  0
107215  1  0  0  0  0
107216  1  0  0  0  0
107217  1  0  0  0  0
108109  1  0  0  0  0
108218  1  0  0  0  0
109219  1  0  0  0  0
110111  1  0  0  0  0
111112  2  0  0  0  0
111220  1  0  0  0  0
M  CHG  1  36   1
M  CHG  1  52   1
M  CHG  1  74   1
M  END
>  <Compound ID>
3221

>  <Uniprot>
Q07817

>  <Target>
BCL-xL

>  <E3 ligase>
VHL

>  <Article DOI>
10.1038/s41467-021-27210-x

>  <Molecular Weight>
1641.5229

>  <Exact Mass>
1639.6519

>  <XLogP3>
12.31

>  <Heavy Atom Count>
112

>  <Ring Count>
11

>  <Hydrogen Bond Acceptor Count>
19

>  <Hydrogen Bond Donor Count>
5

>  <Rotatable Bond Count>
31

>  <Topological Polar Surface Area>
263.54001

>  <Molecular Formula>
C82H105ClF3N11O11S4

>  <InChI>
InChI=1S/C82H105ClF3N11O11S4/c1-56(58-18-20-60(21-19-58)75-57(2)87-55-110-75)88-78(102)71-48-66(98)52-97(71)79(103)76(80(3,4)5)90-73(99)16-12-7-8-13-17-74(100)96-42-38-94(39-43-96)54-81(6)34-32-69(59-22-26-63(83)27-23-59)62(50-81)51-93-36-40-95(41-37-93)65-28-24-61(25-29-65)77(101)91-112(106,107)68-30-31-70(72(49-68)111(104,105)82(84,85)86)89-64(33-35-92-44-46-108-47-45-92)53-109-67-14-10-9-11-15-67/h9-11,14-15,18-31,49,55-56,64,66,71,76,89,98H,7-8,12-13,16-17,32-48,50-54H2,1-6H3,(H,88,102)(H,90,99)(H,91,101)/t56-,64+,66+,71-,76+,81+/m0/s1

>  <InChI Key>
KQEMZZJSHJCPSI-RYFXIQSLSA-N

>  <DC50 (nM)>
6

>  <Assay (DC50/Dmax)>
Degradation of BCL-xL in 293T cells after 16 h treatment

>  <Name>
753b

>  <Ki (nM, Protac to Target)>
1.313

>  <Assay (Protac to Target, Ki)>
Ki was tested by AlphaScreen assay

$$$$
