3101
  MOE2018           3D

113122  0  0  1  0  0  0  0  0999 V2000
  -14.1040   -3.8840    0.1140 N   0  0  0  0  0  0  0  0  0  0  0  0
  -15.0150   -4.8370    0.5150 C   0  0  0  0  0  0  0  0  0  0  0  0
  -16.0110   -4.3960    1.2850 N   0  0  0  0  0  0  0  0  0  0  0  0
  -16.9800   -5.2330    1.6550 N   0  0  0  0  0  0  0  0  0  0  0  0
  -16.9920   -6.5320    1.2690 C   0  0  0  0  0  0  0  0  0  0  0  0
  -18.0820   -7.3950    1.7250 C   0  0  0  0  0  0  0  0  0  0  0  0
  -18.6750   -8.3200    0.8500 C   0  0  0  0  0  0  0  0  0  0  0  0
  -19.6810   -9.1770    1.2880 C   0  0  0  0  0  0  0  0  0  0  0  0
  -20.1230   -9.1270    2.6080 C   0  0  0  0  0  0  0  0  0  0  0  0
  -19.5640   -8.2100    3.4910 C   0  0  0  0  0  0  0  0  0  0  0  0
  -18.5650   -7.3520    3.0470 C   0  0  0  0  0  0  0  0  0  0  0  0
  -18.0650   -6.4590    3.9480 O   0  0  0  0  0  0  0  0  0  0  0  0
  -15.9630   -7.0310    0.4700 C   0  0  0  0  0  0  0  0  0  0  0  0
  -14.9300   -6.1830    0.0900 C   0  0  0  0  0  0  0  0  0  0  0  0
  -13.8300   -6.6630   -0.6990 N   0  0  0  0  0  0  0  0  0  0  0  0
  -12.4500   -6.3980   -0.1570 C   0  0  0  0  0  0  0  0  0  0  0  0
  -11.7450   -7.7540    0.1060 C   0  0  0  0  0  0  0  0  0  0  0  0
  -11.5120   -8.4570   -1.1960 N   0  0  0  0  0  0  0  0  0  0  0  0
  -11.1610   -9.8060   -1.0560 C   0  0  0  0  0  0  0  0  0  0  0  0
  -11.9850  -10.7190   -0.3920 C   0  0  0  0  0  0  0  0  0  0  0  0
  -11.5950  -12.0480   -0.2930 C   0  0  0  0  0  0  0  0  0  0  0  0
  -10.3900  -12.4700   -0.8510 C   0  0  0  0  0  0  0  0  0  0  0  0
   -9.5640  -11.5570   -1.5140 C   0  0  0  0  0  0  0  0  0  0  0  0
   -8.2460  -12.0050   -2.1000 C   0  0  0  0  0  0  0  0  0  0  0  0
   -7.3840  -12.1170   -0.9140 N   0  3  0  0  0  0  0  0  0  0  0  0
   -6.2270  -13.0050   -1.2510 C   0  0  0  0  0  0  0  0  0  0  0  0
   -5.3960  -13.1820    0.0390 C   0  0  0  0  0  0  0  0  0  0  0  0
   -4.9260  -11.8210    0.4160 N   0  0  0  0  0  0  0  0  0  0  0  0
   -3.6100  -11.5240    0.3200 C   0  0  0  0  0  0  0  0  0  0  0  0
   -2.8660  -12.2790   -0.2950 O   0  0  0  0  0  0  0  0  0  0  0  0
   -3.0340  -10.2230    0.9200 C   0  0  0  0  0  0  0  0  0  0  0  0
   -3.0150   -9.0810   -0.1230 C   0  0  0  0  0  0  0  0  0  0  0  0
   -2.4860   -7.8020    0.5600 C   0  0  0  0  0  0  0  0  0  0  0  0
   -1.1420   -8.1280    1.0640 N   0  0  0  0  0  0  0  0  0  0  0  0
    0.0330   -7.8190    0.3470 C   0  0  0  0  0  0  0  0  0  0  0  0
   -0.0060   -7.5770   -1.0440 C   0  0  0  0  0  0  0  0  0  0  0  0
    1.1630   -7.2960   -1.7450 C   0  0  0  0  0  0  0  0  0  0  0  0
    2.3750   -7.2550   -1.0530 C   0  0  0  0  0  0  0  0  0  0  0  0
    3.7240   -7.0120   -1.4940 C   0  0  0  0  0  0  0  0  0  0  0  0
    4.1560   -6.7890   -2.6170 O   0  0  0  0  0  0  0  0  0  0  0  0
    4.5590   -7.0870   -0.3940 N   0  0  0  0  0  0  0  0  0  0  0  0
    6.0020   -6.8070   -0.4360 C   0  0  2  0  0  0  0  0  0  0  0  0
    6.7520   -8.1160   -0.0760 C   0  0  0  0  0  0  0  0  0  0  0  0
    8.2590   -7.7730   -0.0190 C   0  0  0  0  0  0  0  0  0  0  0  0
    8.4620   -6.7350    1.0690 C   0  0  0  0  0  0  0  0  0  0  0  0
    9.4190   -6.7150    1.7980 O   0  0  0  0  0  0  0  0  0  0  0  0
    7.5450   -5.7480    1.2410 N   0  0  0  0  0  0  0  0  0  0  0  0
    6.3620   -5.6980    0.5680 C   0  0  0  0  0  0  0  0  0  0  0  0
    5.6770   -4.7230    0.7830 O   0  0  0  0  0  0  0  0  0  0  0  0
    3.7930   -7.3730    0.7260 C   0  0  0  0  0  0  0  0  0  0  0  0
    4.2830   -7.5270    1.8340 O   0  0  0  0  0  0  0  0  0  0  0  0
    2.4140   -7.4780    0.3110 C   0  0  0  0  0  0  0  0  0  0  0  0
    1.2560   -7.7490    1.0320 C   0  0  0  0  0  0  0  0  0  0  0  0
   -1.1180   -9.1560    2.1260 C   0  0  0  0  0  0  0  0  0  0  0  0
   -1.5980  -10.4480    1.4470 C   0  0  0  0  0  0  0  0  0  0  0  0
   -6.0070  -10.8540    0.7240 C   0  0  0  0  0  0  0  0  0  0  0  0
   -6.8680  -10.7490   -0.5650 C   0  0  0  0  0  0  0  0  0  0  0  0
   -9.9570  -10.2250   -1.6190 C   0  0  0  0  0  0  0  0  0  0  0  0
  -12.5990   -8.2020   -2.1730 C   0  0  0  0  0  0  0  0  0  0  0  0
  -12.5570   -8.8920   -3.5020 C   0  0  0  0  0  0  0  0  0  0  0  0
  -12.1890   -7.4240   -3.3820 C   0  0  0  0  0  0  0  0  0  0  0  0
  -13.9910   -7.8780   -1.5600 C   0  0  0  0  0  0  0  0  0  0  0  0
  -14.2170   -2.9230    0.4050 H   0  0  0  0  0  0  0  0  0  0  0  0
  -13.3230   -4.1460   -0.4710 H   0  0  0  0  0  0  0  0  0  0  0  0
  -18.3460   -8.3670   -0.1780 H   0  0  0  0  0  0  0  0  0  0  0  0
  -20.1210   -9.8840    0.6010 H   0  0  0  0  0  0  0  0  0  0  0  0
  -20.8980   -9.7990    2.9450 H   0  0  0  0  0  0  0  0  0  0  0  0
  -19.9040   -8.1650    4.5150 H   0  0  0  0  0  0  0  0  0  0  0  0
  -17.3770   -5.8820    3.6080 H   0  0  0  0  0  0  0  0  0  0  0  0
  -15.9690   -8.0630    0.1510 H   0  0  0  0  0  0  0  0  0  0  0  0
  -11.8760   -5.8220   -0.8830 H   0  0  0  0  0  0  0  0  0  0  0  0
  -12.5240   -5.8370    0.7750 H   0  0  0  0  0  0  0  0  0  0  0  0
  -12.3750   -8.3730    0.7450 H   0  0  0  0  0  0  0  0  0  0  0  0
  -10.7890   -7.5770    0.5990 H   0  0  0  0  0  0  0  0  0  0  0  0
  -12.9190  -10.3930    0.0410 H   0  0  0  0  0  0  0  0  0  0  0  0
  -12.2280  -12.7580    0.2190 H   0  0  0  0  0  0  0  0  0  0  0  0
  -10.0930  -13.5050   -0.7710 H   0  0  0  0  0  0  0  0  0  0  0  0
   -7.8560  -11.2660   -2.8000 H   0  0  0  0  0  0  0  0  0  0  0  0
   -8.3470  -12.9660   -2.6040 H   0  0  0  0  0  0  0  0  0  0  0  0
   -7.9000  -12.5000   -0.1350 H   0  0  0  0  0  0  0  0  0  0  0  0
   -6.5880  -13.9730   -1.5980 H   0  0  0  0  0  0  0  0  0  0  0  0
   -5.6170  -12.5450   -2.0280 H   0  0  0  0  0  0  0  0  0  0  0  0
   -4.5460  -13.8380   -0.1460 H   0  0  0  0  0  0  0  0  0  0  0  0
   -6.0140  -13.6020    0.8330 H   0  0  0  0  0  0  0  0  0  0  0  0
   -3.6840   -9.9370    1.7470 H   0  0  0  0  0  0  0  0  0  0  0  0
   -4.0240   -8.9080   -0.4970 H   0  0  0  0  0  0  0  0  0  0  0  0
   -2.3620   -9.3520   -0.9530 H   0  0  0  0  0  0  0  0  0  0  0  0
   -3.1390   -7.5170    1.3850 H   0  0  0  0  0  0  0  0  0  0  0  0
   -2.4310   -6.9850   -0.1600 H   0  0  0  0  0  0  0  0  0  0  0  0
   -0.9500   -7.6100   -1.5680 H   0  0  0  0  0  0  0  0  0  0  0  0
    1.1330   -7.1120   -2.8090 H   0  0  0  0  0  0  0  0  0  0  0  0
    6.2890   -6.4650   -1.4300 H   0  0  0  0  0  0  0  0  0  0  0  0
    6.4150   -8.4860    0.8920 H   0  0  0  0  0  0  0  0  0  0  0  0
    6.5690   -8.8740   -0.8380 H   0  0  0  0  0  0  0  0  0  0  0  0
    8.5840   -7.3710   -0.9790 H   0  0  0  0  0  0  0  0  0  0  0  0
    8.8340   -8.6690    0.2130 H   0  0  0  0  0  0  0  0  0  0  0  0
    7.7510   -5.0130    1.9020 H   0  0  0  0  0  0  0  0  0  0  0  0
    1.2970   -7.9030    2.1000 H   0  0  0  0  0  0  0  0  0  0  0  0
   -0.1070   -9.2810    2.5140 H   0  0  0  0  0  0  0  0  0  0  0  0
   -1.7880   -8.8800    2.9400 H   0  0  0  0  0  0  0  0  0  0  0  0
   -0.9360  -10.6940    0.6170 H   0  0  0  0  0  0  0  0  0  0  0  0
   -1.5950  -11.2650    2.1680 H   0  0  0  0  0  0  0  0  0  0  0  0
   -6.6120  -11.2150    1.5550 H   0  0  0  0  0  0  0  0  0  0  0  0
   -5.5840   -9.8820    0.9770 H   0  0  0  0  0  0  0  0  0  0  0  0
   -6.2580  -10.3680   -1.3840 H   0  0  0  0  0  0  0  0  0  0  0  0
   -7.7060  -10.0740   -0.3920 H   0  0  0  0  0  0  0  0  0  0  0  0
   -9.3280   -9.5160   -2.1370 H   0  0  0  0  0  0  0  0  0  0  0  0
  -11.7860   -9.6340   -3.7090 H   0  0  0  0  0  0  0  0  0  0  0  0
  -13.4840   -9.1850   -3.9950 H   0  0  0  0  0  0  0  0  0  0  0  0
  -12.8510   -6.6600   -3.7900 H   0  0  0  0  0  0  0  0  0  0  0  0
  -11.1530   -7.1090   -3.5030 H   0  0  0  0  0  0  0  0  0  0  0  0
  -14.3370   -8.7180   -0.9580 H   0  0  0  0  0  0  0  0  0  0  0  0
  -14.7110   -7.6790   -2.3540 H   0  0  0  0  0  0  0  0  0  0  0  0
  1  2  1  0  0  0  0
  1 63  1  0  0  0  0
  1 64  1  0  0  0  0
  2  3  2  0  0  0  0
  2 14  1  0  0  0  0
  3  4  1  0  0  0  0
  4  5  2  0  0  0  0
  5  6  1  0  0  0  0
  5 13  1  0  0  0  0
  6  7  1  0  0  0  0
  6 11  2  0  0  0  0
  7  8  2  0  0  0  0
  7 65  1  0  0  0  0
  8  9  1  0  0  0  0
  8 66  1  0  0  0  0
  9 10  2  0  0  0  0
  9 67  1  0  0  0  0
 10 11  1  0  0  0  0
 10 68  1  0  0  0  0
 11 12  1  0  0  0  0
 12 69  1  0  0  0  0
 13 14  2  0  0  0  0
 13 70  1  0  0  0  0
 14 15  1  0  0  0  0
 15 16  1  0  0  0  0
 15 62  1  0  0  0  0
 16 17  1  0  0  0  0
 16 71  1  0  0  0  0
 16 72  1  0  0  0  0
 17 18  1  0  0  0  0
 17 73  1  0  0  0  0
 17 74  1  0  0  0  0
 18 19  1  0  0  0  0
 18 59  1  0  0  0  0
 19 20  1  0  0  0  0
 19 58  2  0  0  0  0
 20 21  2  0  0  0  0
 20 75  1  0  0  0  0
 21 22  1  0  0  0  0
 21 76  1  0  0  0  0
 22 23  2  0  0  0  0
 22 77  1  0  0  0  0
 23 24  1  0  0  0  0
 23 58  1  0  0  0  0
 24 25  1  0  0  0  0
 24 78  1  0  0  0  0
 24 79  1  0  0  0  0
 25 26  1  0  0  0  0
 25 57  1  0  0  0  0
 25 80  1  0  0  0  0
 26 27  1  0  0  0  0
 26 81  1  0  0  0  0
 26 82  1  0  0  0  0
 27 28  1  0  0  0  0
 27 83  1  0  0  0  0
 27 84  1  0  0  0  0
 28 29  1  0  0  0  0
 28 56  1  0  0  0  0
 29 30  2  0  0  0  0
 29 31  1  0  0  0  0
 31 32  1  0  0  0  0
 31 55  1  0  0  0  0
 31 85  1  0  0  0  0
 32 33  1  0  0  0  0
 32 86  1  0  0  0  0
 32 87  1  0  0  0  0
 33 34  1  0  0  0  0
 33 88  1  0  0  0  0
 33 89  1  0  0  0  0
 34 35  1  0  0  0  0
 34 54  1  0  0  0  0
 35 36  1  0  0  0  0
 35 53  2  0  0  0  0
 36 37  2  0  0  0  0
 36 90  1  0  0  0  0
 37 38  1  0  0  0  0
 37 91  1  0  0  0  0
 38 39  1  0  0  0  0
 38 52  2  0  0  0  0
 39 40  2  0  0  0  0
 39 41  1  0  0  0  0
 41 42  1  0  0  0  0
 41 50  1  0  0  0  0
 42 43  1  0  0  0  0
 42 48  1  0  0  0  0
 42 92  1  0  0  0  0
 43 44  1  0  0  0  0
 43 93  1  0  0  0  0
 43 94  1  0  0  0  0
 44 45  1  0  0  0  0
 44 95  1  0  0  0  0
 44 96  1  0  0  0  0
 45 46  2  0  0  0  0
 45 47  1  0  0  0  0
 47 48  1  0  0  0  0
 47 97  1  0  0  0  0
 48 49  2  0  0  0  0
 50 51  2  0  0  0  0
 50 52  1  0  0  0  0
 52 53  1  0  0  0  0
 53 98  1  0  0  0  0
 54 55  1  0  0  0  0
 54 99  1  0  0  0  0
 54100  1  0  0  0  0
 55101  1  0  0  0  0
 55102  1  0  0  0  0
 56 57  1  0  0  0  0
 56103  1  0  0  0  0
 56104  1  0  0  0  0
 57105  1  0  0  0  0
 57106  1  0  0  0  0
 58107  1  0  0  0  0
 59 60  1  0  0  0  0
 59 61  1  0  0  0  0
 59 62  1  0  0  0  0
 60 61  1  0  0  0  0
 60108  1  0  0  0  0
 60109  1  0  0  0  0
 61110  1  0  0  0  0
 61111  1  0  0  0  0
 62112  1  0  0  0  0
 62113  1  0  0  0  0
M  CHG  1  25   1
M  END
>  <Compound ID>
3101

>  <Uniprot>
P51531

>  <Target>
SMARCA2

>  <E3 ligase>
CRBN

>  <DC50 (nM)>
4

>  <Assay (DC50/Dmax)>
Degradation of SMARCA2 HiBiT in HT1080 cells after 6 h treatment

>  <Article DOI>
10.1021/acsmedchemlett.1c00657

>  <Molecular Weight>
838.96997

>  <Exact Mass>
838.39148

>  <XLogP3>
2.48

>  <Heavy Atom Count>
62

>  <Ring Count>
10

>  <Hydrogen Bond Acceptor Count>
13

>  <Hydrogen Bond Donor Count>
3

>  <Rotatable Bond Count>
8

>  <Topological Polar Surface Area>
188.85001

>  <Molecular Formula>
C46H50N10O6

>  <InChI>
InChI=1S/C46H50N10O6/c47-41-38(26-36(49-50-41)34-6-1-2-7-39(34)57)54-22-23-55(46(28-54)14-15-46)32-5-3-4-29(24-32)27-51-18-20-53(21-19-51)43(60)30-12-16-52(17-13-30)31-8-9-33-35(25-31)45(62)56(44(33)61)37-10-11-40(58)48-42(37)59/h1-9,24-26,30,37,57H,10-23,27-28H2,(H2,47,50)(H,48,58,59)

>  <InChI Key>
QCCHVYRUHHHVFL-UHFFFAOYSA-N

$$$$
3102
  MOE2018           3D

118127  0  0  1  0  0  0  0  0999 V2000
  -20.1920   -4.8750    0.7550 N   0  0  0  0  0  0  0  0  0  0  0  0
  -21.1100   -5.8650    0.4850 C   0  0  0  0  0  0  0  0  0  0  0  0
  -22.3290   -5.4630    0.1180 N   0  0  0  0  0  0  0  0  0  0  0  0
  -23.2800   -6.3710   -0.1080 N   0  0  0  0  0  0  0  0  0  0  0  0
  -23.0500   -7.7020    0.0230 C   0  0  0  0  0  0  0  0  0  0  0  0
  -24.1360   -8.6390   -0.2640 C   0  0  0  0  0  0  0  0  0  0  0  0
  -24.3450   -9.7620    0.5530 C   0  0  0  0  0  0  0  0  0  0  0  0
  -25.3450  -10.6850    0.2600 C   0  0  0  0  0  0  0  0  0  0  0  0
  -26.1610  -10.5070   -0.8550 C   0  0  0  0  0  0  0  0  0  0  0  0
  -25.9850   -9.3970   -1.6730 C   0  0  0  0  0  0  0  0  0  0  0  0
  -24.9910   -8.4740   -1.3710 C   0  0  0  0  0  0  0  0  0  0  0  0
  -24.8730   -7.3920   -2.1930 O   0  0  0  0  0  0  0  0  0  0  0  0
  -21.7870   -8.1560    0.4060 C   0  0  0  0  0  0  0  0  0  0  0  0
  -20.7820   -7.2280    0.6380 C   0  0  0  0  0  0  0  0  0  0  0  0
  -19.4610   -7.6280    1.0110 N   0  0  0  0  0  0  0  0  0  0  0  0
  -18.4570   -7.4350   -0.0970 C   0  0  0  0  0  0  0  0  0  0  0  0
  -17.0120   -7.7560    0.4100 C   0  0  1  0  0  0  0  0  0  0  0  0
  -16.7240   -6.9740    1.7060 C   0  0  0  0  0  0  0  0  0  0  0  0
  -17.2370   -7.9000    2.8270 C   0  0  0  0  0  0  0  0  0  0  0  0
  -17.7670   -9.1440    2.0850 C   0  0  1  0  0  0  0  0  0  0  0  0
  -19.2710   -8.9520    1.6980 C   0  0  0  0  0  0  0  0  0  0  0  0
  -16.9850   -9.1610    0.8420 N   0  0  0  0  0  0  0  0  0  0  0  0
  -15.7900   -9.9230    0.8420 C   0  0  0  0  0  0  0  0  0  0  0  0
  -15.8760  -11.2820    1.1700 C   0  0  0  0  0  0  0  0  0  0  0  0
  -14.7320  -12.0750    1.1790 C   0  0  0  0  0  0  0  0  0  0  0  0
  -13.4950  -11.5280    0.8520 C   0  0  0  0  0  0  0  0  0  0  0  0
  -13.4170  -10.1760    0.5110 C   0  0  0  0  0  0  0  0  0  0  0  0
  -12.2210   -9.5830    0.1610 O   0  0  0  0  0  0  0  0  0  0  0  0
  -10.9880  -10.2950   -0.0940 C   0  0  0  0  0  0  0  0  0  0  0  0
  -10.0500   -9.2410   -0.7030 C   0  0  0  0  0  0  0  0  0  0  0  0
   -8.7780   -9.9280   -1.0670 N   0  0  0  0  0  0  0  0  0  0  0  0
   -7.8500   -9.9880    0.0990 C   0  0  0  0  0  0  0  0  0  0  0  0
   -6.5910  -10.7790   -0.3440 C   0  0  0  0  0  0  0  0  0  0  0  0
   -5.9450  -10.0230   -1.4650 N   0  3  0  0  0  0  0  0  0  0  0  0
   -4.7180  -10.7300   -1.8830 C   0  0  0  0  0  0  0  0  0  0  0  0
   -3.5660  -10.2510   -0.9700 C   0  0  0  0  0  0  0  0  0  0  0  0
   -3.2790   -8.7510   -1.2390 C   0  0  0  0  0  0  0  0  0  0  0  0
   -2.0450   -8.3390   -0.4170 C   0  0  0  0  0  0  0  0  0  0  0  0
   -0.9600   -9.2030   -0.9050 N   0  0  0  0  0  0  0  0  0  0  0  0
    0.3200   -8.6300   -0.9130 C   0  0  0  0  0  0  0  0  0  0  0  0
    0.5320   -7.4820   -1.7010 C   0  0  0  0  0  0  0  0  0  0  0  0
    1.7840   -6.8760   -1.7400 C   0  0  0  0  0  0  0  0  0  0  0  0
    2.8260   -7.4290   -0.9920 C   0  0  0  0  0  0  0  0  0  0  0  0
    4.2030   -7.0400   -0.8340 C   0  0  0  0  0  0  0  0  0  0  0  0
    4.8190   -6.1110   -1.3370 O   0  0  0  0  0  0  0  0  0  0  0  0
    4.8100   -7.9370    0.0260 N   0  0  0  0  0  0  0  0  0  0  0  0
    6.1880   -7.7950    0.5190 C   0  0  2  0  0  0  0  0  0  0  0  0
    7.0030   -9.0170    0.0200 C   0  0  0  0  0  0  0  0  0  0  0  0
    8.4170   -8.8950    0.6340 C   0  0  0  0  0  0  0  0  0  0  0  0
    8.2770   -8.9370    2.1440 C   0  0  0  0  0  0  0  0  0  0  0  0
    9.0650   -9.4880    2.8680 O   0  0  0  0  0  0  0  0  0  0  0  0
    7.2320   -8.3130    2.7450 N   0  0  0  0  0  0  0  0  0  0  0  0
    6.2050   -7.7420    2.0560 C   0  0  0  0  0  0  0  0  0  0  0  0
    5.3730   -7.1750    2.7290 O   0  0  0  0  0  0  0  0  0  0  0  0
    3.8730   -8.8830    0.4160 C   0  0  0  0  0  0  0  0  0  0  0  0
    4.1480   -9.8140    1.1570 O   0  0  0  0  0  0  0  0  0  0  0  0
    2.6190   -8.5610   -0.2240 C   0  0  0  0  0  0  0  0  0  0  0  0
    1.3730   -9.1810   -0.1660 C   0  0  0  0  0  0  0  0  0  0  0  0
   -1.1180  -10.6200   -0.5420 C   0  0  0  0  0  0  0  0  0  0  0  0
   -2.3340  -11.1010   -1.3530 C   0  0  0  0  0  0  0  0  0  0  0  0
   -6.8890  -10.0350   -2.6230 C   0  0  0  0  0  0  0  0  0  0  0  0
   -8.1460   -9.2270   -2.2150 C   0  0  0  0  0  0  0  0  0  0  0  0
  -14.5480   -9.3690    0.5070 C   0  0  0  0  0  0  0  0  0  0  0  0
  -20.4570   -3.9040    0.6710 H   0  0  0  0  0  0  0  0  0  0  0  0
  -19.2540   -5.1200    1.0370 H   0  0  0  0  0  0  0  0  0  0  0  0
  -23.7210   -9.9120    1.4210 H   0  0  0  0  0  0  0  0  0  0  0  0
  -25.4890  -11.5430    0.9000 H   0  0  0  0  0  0  0  0  0  0  0  0
  -26.9290  -11.2310   -1.0840 H   0  0  0  0  0  0  0  0  0  0  0  0
  -26.6160   -9.2530   -2.5370 H   0  0  0  0  0  0  0  0  0  0  0  0
  -24.1770   -6.7750   -1.9550 H   0  0  0  0  0  0  0  0  0  0  0  0
  -21.5950   -9.2130    0.5200 H   0  0  0  0  0  0  0  0  0  0  0  0
  -18.7030   -8.1010   -0.9240 H   0  0  0  0  0  0  0  0  0  0  0  0
  -18.4950   -6.4010   -0.4400 H   0  0  0  0  0  0  0  0  0  0  0  0
  -16.3070   -7.5170   -0.3860 H   0  0  0  0  0  0  0  0  0  0  0  0
  -15.6560   -6.7880    1.8160 H   0  0  0  0  0  0  0  0  0  0  0  0
  -17.2600   -6.0250    1.7120 H   0  0  0  0  0  0  0  0  0  0  0  0
  -18.0360   -7.4180    3.3900 H   0  0  0  0  0  0  0  0  0  0  0  0
  -16.4270   -8.1710    3.5040 H   0  0  0  0  0  0  0  0  0  0  0  0
  -17.6830  -10.0480    2.6880 H   0  0  0  0  0  0  0  0  0  0  0  0
  -19.8820   -8.9820    2.6000 H   0  0  0  0  0  0  0  0  0  0  0  0
  -19.5760   -9.7540    1.0260 H   0  0  0  0  0  0  0  0  0  0  0  0
  -16.8340  -11.7160    1.4170 H   0  0  0  0  0  0  0  0  0  0  0  0
  -14.8050  -13.1200    1.4410 H   0  0  0  0  0  0  0  0  0  0  0  0
  -12.6060  -12.1410    0.8620 H   0  0  0  0  0  0  0  0  0  0  0  0
  -10.5730  -10.6900    0.8330 H   0  0  0  0  0  0  0  0  0  0  0  0
  -11.1540  -11.1130   -0.7950 H   0  0  0  0  0  0  0  0  0  0  0  0
   -9.8530   -8.4540    0.0250 H   0  0  0  0  0  0  0  0  0  0  0  0
  -10.5060   -8.8070   -1.5930 H   0  0  0  0  0  0  0  0  0  0  0  0
   -7.5680   -8.9800    0.4020 H   0  0  0  0  0  0  0  0  0  0  0  0
   -8.3340  -10.4960    0.9330 H   0  0  0  0  0  0  0  0  0  0  0  0
   -6.8790  -11.7730   -0.6850 H   0  0  0  0  0  0  0  0  0  0  0  0
   -5.8970  -10.8680    0.4910 H   0  0  0  0  0  0  0  0  0  0  0  0
   -5.7250   -9.0820   -1.1710 H   0  0  0  0  0  0  0  0  0  0  0  0
   -4.8540  -11.8060   -1.7750 H   0  0  0  0  0  0  0  0  0  0  0  0
   -4.4900  -10.4950   -2.9230 H   0  0  0  0  0  0  0  0  0  0  0  0
   -3.8140  -10.3630    0.0860 H   0  0  0  0  0  0  0  0  0  0  0  0
   -4.1390   -8.1520   -0.9390 H   0  0  0  0  0  0  0  0  0  0  0  0
   -3.0830   -8.5980   -2.3000 H   0  0  0  0  0  0  0  0  0  0  0  0
   -2.2190   -8.5050    0.6460 H   0  0  0  0  0  0  0  0  0  0  0  0
   -1.8050   -7.2890   -0.5860 H   0  0  0  0  0  0  0  0  0  0  0  0
   -0.2820   -7.0700   -2.2780 H   0  0  0  0  0  0  0  0  0  0  0  0
    1.9470   -5.9920   -2.3390 H   0  0  0  0  0  0  0  0  0  0  0  0
    6.6250   -6.8690    0.1460 H   0  0  0  0  0  0  0  0  0  0  0  0
    6.5300   -9.9420    0.3490 H   0  0  0  0  0  0  0  0  0  0  0  0
    7.0650   -9.0070   -1.0680 H   0  0  0  0  0  0  0  0  0  0  0  0
    8.8720   -7.9520    0.3310 H   0  0  0  0  0  0  0  0  0  0  0  0
    9.0400   -9.7240    0.2970 H   0  0  0  0  0  0  0  0  0  0  0  0
    7.2150   -8.2700    3.7540 H   0  0  0  0  0  0  0  0  0  0  0  0
    1.2210  -10.0630    0.4380 H   0  0  0  0  0  0  0  0  0  0  0  0
   -0.2270  -11.1870   -0.8130 H   0  0  0  0  0  0  0  0  0  0  0  0
   -1.3040  -10.7240    0.5270 H   0  0  0  0  0  0  0  0  0  0  0  0
   -2.1300  -10.9890   -2.4180 H   0  0  0  0  0  0  0  0  0  0  0  0
   -2.5300  -12.1500   -1.1290 H   0  0  0  0  0  0  0  0  0  0  0  0
   -6.4170   -9.5740   -3.4910 H   0  0  0  0  0  0  0  0  0  0  0  0
   -7.1690  -11.0610   -2.8630 H   0  0  0  0  0  0  0  0  0  0  0  0
   -8.8440   -9.1780   -3.0510 H   0  0  0  0  0  0  0  0  0  0  0  0
   -7.8600   -8.2170   -1.9220 H   0  0  0  0  0  0  0  0  0  0  0  0
  -14.4700   -8.3230    0.2480 H   0  0  0  0  0  0  0  0  0  0  0  0
  1  2  1  0  0  0  0
  1 64  1  0  0  0  0
  1 65  1  0  0  0  0
  2  3  2  0  0  0  0
  2 14  1  0  0  0  0
  3  4  1  0  0  0  0
  4  5  2  0  0  0  0
  5  6  1  0  0  0  0
  5 13  1  0  0  0  0
  6  7  1  0  0  0  0
  6 11  2  0  0  0  0
  7  8  2  0  0  0  0
  7 66  1  0  0  0  0
  8  9  1  0  0  0  0
  8 67  1  0  0  0  0
  9 10  2  0  0  0  0
  9 68  1  0  0  0  0
 10 11  1  0  0  0  0
 10 69  1  0  0  0  0
 11 12  1  0  0  0  0
 12 70  1  0  0  0  0
 13 14  2  0  0  0  0
 13 71  1  0  0  0  0
 14 15  1  0  0  0  0
 15 16  1  0  0  0  0
 15 21  1  0  0  0  0
 16 17  1  0  0  0  0
 16 72  1  0  0  0  0
 16 73  1  0  0  0  0
 17 18  1  0  0  0  0
 17 22  1  0  0  0  0
 17 74  1  0  0  0  0
 18 19  1  0  0  0  0
 18 75  1  0  0  0  0
 18 76  1  0  0  0  0
 19 20  1  0  0  0  0
 19 77  1  0  0  0  0
 19 78  1  0  0  0  0
 20 21  1  0  0  0  0
 20 22  1  0  0  0  0
 20 79  1  0  0  0  0
 21 80  1  0  0  0  0
 21 81  1  0  0  0  0
 22 23  1  0  0  0  0
 23 24  1  0  0  0  0
 23 63  2  0  0  0  0
 24 25  2  0  0  0  0
 24 82  1  0  0  0  0
 25 26  1  0  0  0  0
 25 83  1  0  0  0  0
 26 27  2  0  0  0  0
 26 84  1  0  0  0  0
 27 28  1  0  0  0  0
 27 63  1  0  0  0  0
 28 29  1  0  0  0  0
 29 30  1  0  0  0  0
 29 85  1  0  0  0  0
 29 86  1  0  0  0  0
 30 31  1  0  0  0  0
 30 87  1  0  0  0  0
 30 88  1  0  0  0  0
 31 32  1  0  0  0  0
 31 62  1  0  0  0  0
 32 33  1  0  0  0  0
 32 89  1  0  0  0  0
 32 90  1  0  0  0  0
 33 34  1  0  0  0  0
 33 91  1  0  0  0  0
 33 92  1  0  0  0  0
 34 35  1  0  0  0  0
 34 61  1  0  0  0  0
 34 93  1  0  0  0  0
 35 36  1  0  0  0  0
 35 94  1  0  0  0  0
 35 95  1  0  0  0  0
 36 37  1  0  0  0  0
 36 60  1  0  0  0  0
 36 96  1  0  0  0  0
 37 38  1  0  0  0  0
 37 97  1  0  0  0  0
 37 98  1  0  0  0  0
 38 39  1  0  0  0  0
 38 99  1  0  0  0  0
 38100  1  0  0  0  0
 39 40  1  0  0  0  0
 39 59  1  0  0  0  0
 40 41  1  0  0  0  0
 40 58  2  0  0  0  0
 41 42  2  0  0  0  0
 41101  1  0  0  0  0
 42 43  1  0  0  0  0
 42102  1  0  0  0  0
 43 44  1  0  0  0  0
 43 57  2  0  0  0  0
 44 45  2  0  0  0  0
 44 46  1  0  0  0  0
 46 47  1  0  0  0  0
 46 55  1  0  0  0  0
 47 48  1  0  0  0  0
 47 53  1  0  0  0  0
 47103  1  0  0  0  0
 48 49  1  0  0  0  0
 48104  1  0  0  0  0
 48105  1  0  0  0  0
 49 50  1  0  0  0  0
 49106  1  0  0  0  0
 49107  1  0  0  0  0
 50 51  2  0  0  0  0
 50 52  1  0  0  0  0
 52 53  1  0  0  0  0
 52108  1  0  0  0  0
 53 54  2  0  0  0  0
 55 56  2  0  0  0  0
 55 57  1  0  0  0  0
 57 58  1  0  0  0  0
 58109  1  0  0  0  0
 59 60  1  0  0  0  0
 59110  1  0  0  0  0
 59111  1  0  0  0  0
 60112  1  0  0  0  0
 60113  1  0  0  0  0
 61 62  1  0  0  0  0
 61114  1  0  0  0  0
 61115  1  0  0  0  0
 62116  1  0  0  0  0
 62117  1  0  0  0  0
 63118  1  0  0  0  0
M  CHG  1  34   1
M  END
>  <Compound ID>
3102

>  <Uniprot>
P51531

>  <Target>
SMARCA2

>  <E3 ligase>
CRBN

>  <DC50 (nM)>
2

>  <Assay (DC50/Dmax)>
Degradation of SMARCA2 HiBiT in HT1080 cells after 6 h treatment

>  <Article DOI>
10.1021/acsmedchemlett.1c00657

>  <Molecular Weight>
855.013

>  <Exact Mass>
854.42279

>  <XLogP3>
3.73

>  <Heavy Atom Count>
63

>  <Ring Count>
10

>  <Hydrogen Bond Acceptor Count>
14

>  <Hydrogen Bond Donor Count>
3

>  <Rotatable Bond Count>
11

>  <Topological Polar Surface Area>
181.00999

>  <Molecular Formula>
C47H54N10O6

>  <InChI>
InChI=1S/C47H54N10O6/c48-44-41(26-39(50-51-44)37-6-1-2-7-42(37)58)55-28-33-8-9-34(29-55)56(33)32-4-3-5-35(24-32)63-23-22-52-18-20-53(21-19-52)27-30-14-16-54(17-15-30)31-10-11-36-38(25-31)47(62)57(46(36)61)40-12-13-43(59)49-45(40)60/h1-7,10-11,24-26,30,33-34,40,58H,8-9,12-23,27-29H2,(H2,48,51)(H,49,59,60)

>  <InChI Key>
NZXFUHUZHUMMLU-UHFFFAOYSA-N

$$$$
3103
  MOE2018           3D

124133  0  0  1  0  0  0  0  0999 V2000
  -22.6880   -5.4110    0.8970 N   0  0  0  0  0  0  0  0  0  0  0  0
  -23.6050   -6.3380    0.4580 C   0  0  0  0  0  0  0  0  0  0  0  0
  -24.8250   -5.8790    0.1700 N   0  0  0  0  0  0  0  0  0  0  0  0
  -25.7790   -6.7340   -0.2050 N   0  0  0  0  0  0  0  0  0  0  0  0
  -25.5520   -8.0680   -0.2980 C   0  0  0  0  0  0  0  0  0  0  0  0
  -26.6500   -8.9490   -0.6910 C   0  0  0  0  0  0  0  0  0  0  0  0
  -26.4330  -10.0070   -1.5890 C   0  0  0  0  0  0  0  0  0  0  0  0
  -27.4610  -10.8810   -1.9290 C   0  0  0  0  0  0  0  0  0  0  0  0
  -28.7320  -10.7170   -1.3830 C   0  0  0  0  0  0  0  0  0  0  0  0
  -28.9780   -9.6700   -0.5030 C   0  0  0  0  0  0  0  0  0  0  0  0
  -27.9500   -8.7960   -0.1730 C   0  0  0  0  0  0  0  0  0  0  0  0
  -28.2450   -7.7740    0.6790 O   0  0  0  0  0  0  0  0  0  0  0  0
  -24.2890   -8.5820   -0.0040 C   0  0  0  0  0  0  0  0  0  0  0  0
  -23.2790   -7.7090    0.3750 C   0  0  0  0  0  0  0  0  0  0  0  0
  -21.9620   -8.1750    0.6830 N   0  0  0  0  0  0  0  0  0  0  0  0
  -20.9360   -7.7820   -0.3510 C   0  0  0  0  0  0  0  0  0  0  0  0
  -19.5030   -8.2140    0.1080 C   0  0  1  0  0  0  0  0  0  0  0  0
  -19.2350   -7.6990    1.5360 C   0  0  0  0  0  0  0  0  0  0  0  0
  -19.7660   -8.8210    2.4490 C   0  0  0  0  0  0  0  0  0  0  0  0
  -20.3000   -9.8890    1.4740 C   0  0  1  0  0  0  0  0  0  0  0  0
  -21.7940   -9.6060    1.1160 C   0  0  0  0  0  0  0  0  0  0  0  0
  -19.5070   -9.6750    0.2580 N   0  0  0  0  0  0  0  0  0  0  0  0
  -18.3340  -10.4520    0.1230 C   0  0  0  0  0  0  0  0  0  0  0  0
  -18.4760  -11.8440    0.1070 C   0  0  0  0  0  0  0  0  0  0  0  0
  -17.3590  -12.6610   -0.0270 C   0  0  0  0  0  0  0  0  0  0  0  0
  -16.0910  -12.1010   -0.1510 C   0  0  0  0  0  0  0  0  0  0  0  0
  -15.9540  -10.7090   -0.1390 C   0  0  0  0  0  0  0  0  0  0  0  0
  -14.7180  -10.1010   -0.2480 O   0  0  0  0  0  0  0  0  0  0  0  0
  -13.4690  -10.8260   -0.3520 C   0  0  0  0  0  0  0  0  0  0  0  0
  -12.3660   -9.7570   -0.3010 C   0  0  0  0  0  0  0  0  0  0  0  0
  -11.0600  -10.4750   -0.3760 N   0  0  0  0  0  0  0  0  0  0  0  0
  -10.6450  -10.9760    0.9650 C   0  0  0  0  0  0  0  0  0  0  0  0
   -9.3540  -11.8080    0.7610 C   0  0  0  0  0  0  0  0  0  0  0  0
   -8.2930  -10.8950    0.2370 N   0  3  0  0  0  0  0  0  0  0  0  0
   -7.0630  -11.6880    0.0850 C   0  0  0  0  0  0  0  0  0  0  0  0
   -5.9090  -10.6860    0.2400 C   0  0  0  0  0  0  0  0  0  0  0  0
   -4.6130  -11.5120    0.1440 C   0  0  0  0  0  0  0  0  0  0  0  0
   -3.3400  -10.7020    0.4600 C   0  0  0  0  0  0  0  0  0  0  0  0
   -3.0960   -9.5750   -0.5670 C   0  0  0  0  0  0  0  0  0  0  0  0
   -1.8010   -8.8370   -0.1790 C   0  0  0  0  0  0  0  0  0  0  0  0
   -0.7340   -9.8510   -0.2300 N   0  0  0  0  0  0  0  0  0  0  0  0
    0.5390   -9.3930   -0.5940 C   0  0  0  0  0  0  0  0  0  0  0  0
    0.6950   -8.7880   -1.8570 C   0  0  0  0  0  0  0  0  0  0  0  0
    1.9410   -8.3240   -2.2670 C   0  0  0  0  0  0  0  0  0  0  0  0
    3.0330   -8.4750   -1.4080 C   0  0  0  0  0  0  0  0  0  0  0  0
    4.4200   -8.1130   -1.5500 C   0  0  0  0  0  0  0  0  0  0  0  0
    5.0000   -7.5790   -2.4840 O   0  0  0  0  0  0  0  0  0  0  0  0
    5.0850   -8.4930   -0.3990 N   0  0  0  0  0  0  0  0  0  0  0  0
    6.5000   -8.1890   -0.1330 C   0  0  2  0  0  0  0  0  0  0  0  0
    7.2660   -9.5320   -0.0120 C   0  0  0  0  0  0  0  0  0  0  0  0
    8.7280   -9.1850    0.3550 C   0  0  0  0  0  0  0  0  0  0  0  0
    8.7180   -8.4590    1.6870 C   0  0  0  0  0  0  0  0  0  0  0  0
    9.5690   -8.6030    2.5270 O   0  0  0  0  0  0  0  0  0  0  0  0
    7.7250   -7.5780    1.9730 N   0  0  0  0  0  0  0  0  0  0  0  0
    6.6410   -7.3860    1.1710 C   0  0  0  0  0  0  0  0  0  0  0  0
    5.8640   -6.5320    1.5360 O   0  0  0  0  0  0  0  0  0  0  0  0
    4.1770   -9.0860    0.4660 C   0  0  0  0  0  0  0  0  0  0  0  0
    4.5030   -9.5410    1.5510 O   0  0  0  0  0  0  0  0  0  0  0  0
    2.8800   -9.0720   -0.1690 C   0  0  0  0  0  0  0  0  0  0  0  0
    1.6420   -9.5370    0.2630 C   0  0  0  0  0  0  0  0  0  0  0  0
   -0.8620  -10.8930    0.8030 C   0  0  0  0  0  0  0  0  0  0  0  0
   -2.1400  -11.6730    0.4440 C   0  0  0  0  0  0  0  0  0  0  0  0
   -8.7260  -10.4160   -1.1170 C   0  0  0  0  0  0  0  0  0  0  0  0
  -10.0190   -9.5770   -0.9420 C   0  0  0  0  0  0  0  0  0  0  0  0
  -17.0630   -9.8800   -0.0100 C   0  0  0  0  0  0  0  0  0  0  0  0
  -22.9540   -4.4410    0.9860 H   0  0  0  0  0  0  0  0  0  0  0  0
  -21.7490   -5.7010    1.1300 H   0  0  0  0  0  0  0  0  0  0  0  0
  -25.4530  -10.1440   -2.0220 H   0  0  0  0  0  0  0  0  0  0  0  0
  -27.2730  -11.6900   -2.6190 H   0  0  0  0  0  0  0  0  0  0  0  0
  -29.5250  -11.4020   -1.6430 H   0  0  0  0  0  0  0  0  0  0  0  0
  -29.9620   -9.5370   -0.0780 H   0  0  0  0  0  0  0  0  0  0  0  0
  -27.5100   -7.1920    0.8840 H   0  0  0  0  0  0  0  0  0  0  0  0
  -24.1000   -9.6430   -0.0700 H   0  0  0  0  0  0  0  0  0  0  0  0
  -21.1730   -8.2710   -1.2960 H   0  0  0  0  0  0  0  0  0  0  0  0
  -20.9590   -6.7010   -0.4860 H   0  0  0  0  0  0  0  0  0  0  0  0
  -18.7750   -7.8380   -0.6110 H   0  0  0  0  0  0  0  0  0  0  0  0
  -18.1680   -7.5420    1.6970 H   0  0  0  0  0  0  0  0  0  0  0  0
  -19.7700   -6.7670    1.7180 H   0  0  0  0  0  0  0  0  0  0  0  0
  -20.5650   -8.4500    3.0900 H   0  0  0  0  0  0  0  0  0  0  0  0
  -18.9650   -9.2280    3.0660 H   0  0  0  0  0  0  0  0  0  0  0  0
  -20.2320  -10.8930    1.8930 H   0  0  0  0  0  0  0  0  0  0  0  0
  -22.4160   -9.7930    1.9920 H   0  0  0  0  0  0  0  0  0  0  0  0
  -22.1010  -10.2660    0.3050 H   0  0  0  0  0  0  0  0  0  0  0  0
  -19.4570  -12.2860    0.1990 H   0  0  0  0  0  0  0  0  0  0  0  0
  -17.4760  -13.7350   -0.0350 H   0  0  0  0  0  0  0  0  0  0  0  0
  -15.2220  -12.7340   -0.2550 H   0  0  0  0  0  0  0  0  0  0  0  0
  -13.3630  -11.5220    0.4800 H   0  0  0  0  0  0  0  0  0  0  0  0
  -13.4240  -11.3740   -1.2930 H   0  0  0  0  0  0  0  0  0  0  0  0
  -12.4320   -9.1950    0.6310 H   0  0  0  0  0  0  0  0  0  0  0  0
  -12.4670   -9.0740   -1.1450 H   0  0  0  0  0  0  0  0  0  0  0  0
  -10.4480  -10.1370    1.6330 H   0  0  0  0  0  0  0  0  0  0  0  0
  -11.4300  -11.6020    1.3900 H   0  0  0  0  0  0  0  0  0  0  0  0
   -9.5390  -12.6090    0.0450 H   0  0  0  0  0  0  0  0  0  0  0  0
   -9.0360  -12.2370    1.7110 H   0  0  0  0  0  0  0  0  0  0  0  0
   -8.1400  -10.1110    0.8550 H   0  0  0  0  0  0  0  0  0  0  0  0
   -7.0070  -12.4560    0.8560 H   0  0  0  0  0  0  0  0  0  0  0  0
   -7.0310  -12.1570   -0.8980 H   0  0  0  0  0  0  0  0  0  0  0  0
   -5.9440   -9.9420   -0.5560 H   0  0  0  0  0  0  0  0  0  0  0  0
   -5.9690  -10.1860    1.2070 H   0  0  0  0  0  0  0  0  0  0  0  0
   -4.5290  -11.9050   -0.8690 H   0  0  0  0  0  0  0  0  0  0  0  0
   -4.6790  -12.3400    0.8500 H   0  0  0  0  0  0  0  0  0  0  0  0
   -3.4610  -10.2310    1.4360 H   0  0  0  0  0  0  0  0  0  0  0  0
   -3.9340   -8.8780   -0.5560 H   0  0  0  0  0  0  0  0  0  0  0  0
   -2.9920  -10.0020   -1.5640 H   0  0  0  0  0  0  0  0  0  0  0  0
   -1.8850   -8.4240    0.8260 H   0  0  0  0  0  0  0  0  0  0  0  0
   -1.5950   -8.0330   -0.8860 H   0  0  0  0  0  0  0  0  0  0  0  0
   -0.1580   -8.6840   -2.5110 H   0  0  0  0  0  0  0  0  0  0  0  0
    2.0620   -7.8550   -3.2320 H   0  0  0  0  0  0  0  0  0  0  0  0
    6.9100   -7.5890   -0.9450 H   0  0  0  0  0  0  0  0  0  0  0  0
    6.8200  -10.1490    0.7680 H   0  0  0  0  0  0  0  0  0  0  0  0
    7.2350  -10.0680   -0.9610 H   0  0  0  0  0  0  0  0  0  0  0  0
    9.1600   -8.5430   -0.4130 H   0  0  0  0  0  0  0  0  0  0  0  0
    9.3160  -10.0990    0.4370 H   0  0  0  0  0  0  0  0  0  0  0  0
    7.7940   -7.0380    2.8240 H   0  0  0  0  0  0  0  0  0  0  0  0
    1.5320   -9.9970    1.2340 H   0  0  0  0  0  0  0  0  0  0  0  0
    0.0050  -11.5540    0.7870 H   0  0  0  0  0  0  0  0  0  0  0  0
   -0.9560  -10.4410    1.7900 H   0  0  0  0  0  0  0  0  0  0  0  0
   -2.0350  -12.1090   -0.5490 H   0  0  0  0  0  0  0  0  0  0  0  0
   -2.3020  -12.4660    1.1740 H   0  0  0  0  0  0  0  0  0  0  0  0
   -7.9430   -9.8000   -1.5590 H   0  0  0  0  0  0  0  0  0  0  0  0
   -8.9250  -11.2700   -1.7650 H   0  0  0  0  0  0  0  0  0  0  0  0
  -10.3460   -9.1900   -1.9070 H   0  0  0  0  0  0  0  0  0  0  0  0
   -9.8340   -8.7460   -0.2620 H   0  0  0  0  0  0  0  0  0  0  0  0
  -16.9450   -8.8060   -0.0120 H   0  0  0  0  0  0  0  0  0  0  0  0
  1  2  1  0  0  0  0
  1 66  1  0  0  0  0
  1 67  1  0  0  0  0
  2  3  2  0  0  0  0
  2 14  1  0  0  0  0
  3  4  1  0  0  0  0
  4  5  2  0  0  0  0
  5  6  1  0  0  0  0
  5 13  1  0  0  0  0
  6  7  1  0  0  0  0
  6 11  2  0  0  0  0
  7  8  2  0  0  0  0
  7 68  1  0  0  0  0
  8  9  1  0  0  0  0
  8 69  1  0  0  0  0
  9 10  2  0  0  0  0
  9 70  1  0  0  0  0
 10 11  1  0  0  0  0
 10 71  1  0  0  0  0
 11 12  1  0  0  0  0
 12 72  1  0  0  0  0
 13 14  2  0  0  0  0
 13 73  1  0  0  0  0
 14 15  1  0  0  0  0
 15 16  1  0  0  0  0
 15 21  1  0  0  0  0
 16 17  1  0  0  0  0
 16 74  1  0  0  0  0
 16 75  1  0  0  0  0
 17 18  1  0  0  0  0
 17 22  1  0  0  0  0
 17 76  1  0  0  0  0
 18 19  1  0  0  0  0
 18 77  1  0  0  0  0
 18 78  1  0  0  0  0
 19 20  1  0  0  0  0
 19 79  1  0  0  0  0
 19 80  1  0  0  0  0
 20 21  1  0  0  0  0
 20 22  1  0  0  0  0
 20 81  1  0  0  0  0
 21 82  1  0  0  0  0
 21 83  1  0  0  0  0
 22 23  1  0  0  0  0
 23 24  1  0  0  0  0
 23 65  2  0  0  0  0
 24 25  2  0  0  0  0
 24 84  1  0  0  0  0
 25 26  1  0  0  0  0
 25 85  1  0  0  0  0
 26 27  2  0  0  0  0
 26 86  1  0  0  0  0
 27 28  1  0  0  0  0
 27 65  1  0  0  0  0
 28 29  1  0  0  0  0
 29 30  1  0  0  0  0
 29 87  1  0  0  0  0
 29 88  1  0  0  0  0
 30 31  1  0  0  0  0
 30 89  1  0  0  0  0
 30 90  1  0  0  0  0
 31 32  1  0  0  0  0
 31 64  1  0  0  0  0
 32 33  1  0  0  0  0
 32 91  1  0  0  0  0
 32 92  1  0  0  0  0
 33 34  1  0  0  0  0
 33 93  1  0  0  0  0
 33 94  1  0  0  0  0
 34 35  1  0  0  0  0
 34 63  1  0  0  0  0
 34 95  1  0  0  0  0
 35 36  1  0  0  0  0
 35 96  1  0  0  0  0
 35 97  1  0  0  0  0
 36 37  1  0  0  0  0
 36 98  1  0  0  0  0
 36 99  1  0  0  0  0
 37 38  1  0  0  0  0
 37100  1  0  0  0  0
 37101  1  0  0  0  0
 38 39  1  0  0  0  0
 38 62  1  0  0  0  0
 38102  1  0  0  0  0
 39 40  1  0  0  0  0
 39103  1  0  0  0  0
 39104  1  0  0  0  0
 40 41  1  0  0  0  0
 40105  1  0  0  0  0
 40106  1  0  0  0  0
 41 42  1  0  0  0  0
 41 61  1  0  0  0  0
 42 43  1  0  0  0  0
 42 60  2  0  0  0  0
 43 44  2  0  0  0  0
 43107  1  0  0  0  0
 44 45  1  0  0  0  0
 44108  1  0  0  0  0
 45 46  1  0  0  0  0
 45 59  2  0  0  0  0
 46 47  2  0  0  0  0
 46 48  1  0  0  0  0
 48 49  1  0  0  0  0
 48 57  1  0  0  0  0
 49 50  1  0  0  0  0
 49 55  1  0  0  0  0
 49109  1  0  0  0  0
 50 51  1  0  0  0  0
 50110  1  0  0  0  0
 50111  1  0  0  0  0
 51 52  1  0  0  0  0
 51112  1  0  0  0  0
 51113  1  0  0  0  0
 52 53  2  0  0  0  0
 52 54  1  0  0  0  0
 54 55  1  0  0  0  0
 54114  1  0  0  0  0
 55 56  2  0  0  0  0
 57 58  2  0  0  0  0
 57 59  1  0  0  0  0
 59 60  1  0  0  0  0
 60115  1  0  0  0  0
 61 62  1  0  0  0  0
 61116  1  0  0  0  0
 61117  1  0  0  0  0
 62118  1  0  0  0  0
 62119  1  0  0  0  0
 63 64  1  0  0  0  0
 63120  1  0  0  0  0
 63121  1  0  0  0  0
 64122  1  0  0  0  0
 64123  1  0  0  0  0
 65124  1  0  0  0  0
M  CHG  1  34   1
M  END
>  <Compound ID>
3103

>  <Uniprot>
P51531

>  <Target>
SMARCA2

>  <E3 ligase>
CRBN

>  <DC50 (nM)>
2

>  <Assay (DC50/Dmax)>
Degradation of SMARCA2 HiBiT in HT1080 cells after 6 h treatment

>  <Article DOI>
10.1021/acsmedchemlett.1c00657

>  <Molecular Weight>
883.06702

>  <Exact Mass>
882.4541

>  <XLogP3>
4.4400001

>  <Heavy Atom Count>
65

>  <Ring Count>
10

>  <Hydrogen Bond Acceptor Count>
14

>  <Hydrogen Bond Donor Count>
3

>  <Rotatable Bond Count>
13

>  <Topological Polar Surface Area>
181.00999

>  <Molecular Formula>
C49H58N10O6

>  <InChI>
InChI=1S/C49H58N10O6/c50-46-43(29-41(52-53-46)39-8-1-2-9-44(39)60)57-30-35-10-11-36(31-57)58(35)34-6-3-7-37(27-34)65-26-25-55-23-21-54(22-24-55)18-4-5-32-16-19-56(20-17-32)33-12-13-38-40(28-33)49(64)59(48(38)63)42-14-15-45(61)51-47(42)62/h1-3,6-9,12-13,27-29,32,35-36,42,60H,4-5,10-11,14-26,30-31H2,(H2,50,53)(H,51,61,62)

>  <InChI Key>
UTLOUOROEIRWIF-UHFFFAOYSA-N

$$$$
3104
  MOE2018           3D

106113  0  0  1  0  0  0  0  0999 V2000
  -17.4830    8.4000    1.0120 N   0  0  0  0  0  0  0  0  0  0  0  0
  -18.4140    7.3890    0.9020 C   0  0  0  0  0  0  0  0  0  0  0  0
  -19.6870    7.7840    0.9630 N   0  0  0  0  0  0  0  0  0  0  0  0
  -20.6660    6.8790    0.9350 N   0  0  0  0  0  0  0  0  0  0  0  0
  -20.4140    5.5500    0.8590 C   0  0  0  0  0  0  0  0  0  0  0  0
  -21.5370    4.6130    0.8590 C   0  0  0  0  0  0  0  0  0  0  0  0
  -21.5330    3.4950    0.0090 C   0  0  0  0  0  0  0  0  0  0  0  0
  -22.5770    2.5740    0.0320 C   0  0  0  0  0  0  0  0  0  0  0  0
  -23.6520    2.7500    0.9000 C   0  0  0  0  0  0  0  0  0  0  0  0
  -23.6880    3.8560    1.7410 C   0  0  0  0  0  0  0  0  0  0  0  0
  -22.6470    4.7760    1.7090 C   0  0  0  0  0  0  0  0  0  0  0  0
  -22.7420    5.8540    2.5390 O   0  0  0  0  0  0  0  0  0  0  0  0
  -19.0950    5.0980    0.7950 C   0  0  0  0  0  0  0  0  0  0  0  0
  -18.0610    6.0260    0.7830 C   0  0  0  0  0  0  0  0  0  0  0  0
  -16.7030    5.5960    0.6760 N   0  0  0  0  0  0  0  0  0  0  0  0
  -15.7140    6.2820   -0.1980 C   0  0  0  0  0  0  0  0  0  0  0  0
  -15.3850    4.8990   -0.8230 C   0  0  0  0  0  0  0  0  0  0  0  0
  -13.9770    4.5500   -0.7060 O   0  0  0  0  0  0  0  0  0  0  0  0
  -13.0140    4.8840   -1.6330 C   0  0  0  0  0  0  0  0  0  0  0  0
  -13.2740    5.7570   -2.6920 C   0  0  0  0  0  0  0  0  0  0  0  0
  -12.2660    6.0340   -3.6080 C   0  0  0  0  0  0  0  0  0  0  0  0
  -11.0110    5.4440   -3.4700 C   0  0  0  0  0  0  0  0  0  0  0  0
  -10.7500    4.5750   -2.4070 C   0  0  0  0  0  0  0  0  0  0  0  0
   -9.3890    3.9160   -2.2700 C   0  0  0  0  0  0  0  0  0  0  0  0
   -8.7410    4.4880   -1.0650 N   0  0  0  0  0  0  0  0  0  0  0  0
   -8.3830    5.9260   -1.2890 C   0  0  0  0  0  0  0  0  0  0  0  0
   -7.8140    6.4860    0.0340 C   0  0  0  0  0  0  0  0  0  0  0  0
   -6.6210    5.6620    0.3690 N   0  0  0  0  0  0  0  0  0  0  0  0
   -5.3770    6.1720    0.2850 C   0  0  0  0  0  0  0  0  0  0  0  0
   -5.1730    7.3350   -0.0570 O   0  0  0  0  0  0  0  0  0  0  0  0
   -4.1430    5.2870    0.6020 C   0  0  0  0  0  0  0  0  0  0  0  0
   -2.8230    6.0000    0.4780 N   0  3  0  0  0  0  0  0  0  0  0  0
   -1.7230    5.0180    0.4270 C   0  0  0  0  0  0  0  0  0  0  0  0
   -0.4790    5.8210    0.0190 C   0  0  0  0  0  0  0  0  0  0  0  0
   -0.2310    6.8680    1.1190 C   0  0  0  0  0  0  0  0  0  0  0  0
    0.9760    7.7090    0.7260 C   0  0  0  0  0  0  0  0  0  0  0  0
    0.9800    8.5020   -0.4280 C   0  0  0  0  0  0  0  0  0  0  0  0
    2.0960    9.2580   -0.7660 C   0  0  0  0  0  0  0  0  0  0  0  0
    3.2280    9.2230    0.0460 C   0  0  0  0  0  0  0  0  0  0  0  0
    4.3330    9.9890   -0.3360 N   0  0  0  0  0  0  0  0  0  0  0  0
    5.6740    9.3870   -0.2180 C   0  0  2  0  0  0  0  0  0  0  0  0
    6.3780   10.1430    0.9290 C   0  0  0  0  0  0  0  0  0  0  0  0
    7.8080    9.5590    1.0420 C   0  0  0  0  0  0  0  0  0  0  0  0
    8.5270    9.7800   -0.2770 C   0  0  0  0  0  0  0  0  0  0  0  0
    9.7100    9.9850   -0.3590 O   0  0  0  0  0  0  0  0  0  0  0  0
    7.8390    9.7490   -1.4470 N   0  0  0  0  0  0  0  0  0  0  0  0
    6.4840    9.6250   -1.5100 C   0  0  0  0  0  0  0  0  0  0  0  0
    5.9960    9.7320   -2.6150 O   0  0  0  0  0  0  0  0  0  0  0  0
    3.2340    8.4470    1.2060 C   0  0  0  0  0  0  0  0  0  0  0  0
    2.1130    7.6930    1.5370 C   0  0  0  0  0  0  0  0  0  0  0  0
   -1.4510    7.7900    1.2990 C   0  0  0  0  0  0  0  0  0  0  0  0
   -2.6530    6.8970    1.6440 C   0  0  0  0  0  0  0  0  0  0  0  0
   -6.9690    4.2380    0.6060 C   0  0  0  0  0  0  0  0  0  0  0  0
   -7.5320    3.6960   -0.7310 C   0  0  0  0  0  0  0  0  0  0  0  0
  -11.7570    4.3040   -1.4820 C   0  0  0  0  0  0  0  0  0  0  0  0
  -16.2500    4.2350    0.2830 C   0  0  0  0  0  0  0  0  0  0  0  0
  -17.7870    9.3560    1.1290 H   0  0  0  0  0  0  0  0  0  0  0  0
  -16.4970    8.1850    0.9760 H   0  0  0  0  0  0  0  0  0  0  0  0
  -20.7080    3.3480   -0.6720 H   0  0  0  0  0  0  0  0  0  0  0  0
  -22.5530    1.7190   -0.6270 H   0  0  0  0  0  0  0  0  0  0  0  0
  -24.4560    2.0290    0.9200 H   0  0  0  0  0  0  0  0  0  0  0  0
  -24.5200    3.9990    2.4150 H   0  0  0  0  0  0  0  0  0  0  0  0
  -22.0070    6.4690    2.4910 H   0  0  0  0  0  0  0  0  0  0  0  0
  -18.8810    4.0400    0.7550 H   0  0  0  0  0  0  0  0  0  0  0  0
  -16.1470    7.0010   -0.8930 H   0  0  0  0  0  0  0  0  0  0  0  0
  -14.8840    6.7460    0.3350 H   0  0  0  0  0  0  0  0  0  0  0  0
  -15.5610    4.7010   -1.8800 H   0  0  0  0  0  0  0  0  0  0  0  0
  -14.2480    6.2120   -2.7980 H   0  0  0  0  0  0  0  0  0  0  0  0
  -12.4560    6.7090   -4.4300 H   0  0  0  0  0  0  0  0  0  0  0  0
  -10.2350    5.6600   -4.1890 H   0  0  0  0  0  0  0  0  0  0  0  0
   -8.7840    4.1230   -3.1530 H   0  0  0  0  0  0  0  0  0  0  0  0
   -9.5060    2.8390   -2.1540 H   0  0  0  0  0  0  0  0  0  0  0  0
   -7.6330    6.0030   -2.0760 H   0  0  0  0  0  0  0  0  0  0  0  0
   -9.2710    6.4880   -1.5770 H   0  0  0  0  0  0  0  0  0  0  0  0
   -8.5590    6.4080    0.8260 H   0  0  0  0  0  0  0  0  0  0  0  0
   -7.5260    7.5300   -0.0930 H   0  0  0  0  0  0  0  0  0  0  0  0
   -4.1420    4.4430   -0.0880 H   0  0  0  0  0  0  0  0  0  0  0  0
   -4.2390    4.9210    1.6240 H   0  0  0  0  0  0  0  0  0  0  0  0
   -2.8060    6.5440   -0.3730 H   0  0  0  0  0  0  0  0  0  0  0  0
   -1.5770    4.5580    1.4040 H   0  0  0  0  0  0  0  0  0  0  0  0
   -1.9360    4.2440   -0.3100 H   0  0  0  0  0  0  0  0  0  0  0  0
    0.3820    5.1580   -0.0660 H   0  0  0  0  0  0  0  0  0  0  0  0
   -0.6520    6.3170   -0.9360 H   0  0  0  0  0  0  0  0  0  0  0  0
   -0.0540    6.3500    2.0610 H   0  0  0  0  0  0  0  0  0  0  0  0
    0.1060    8.5260   -1.0620 H   0  0  0  0  0  0  0  0  0  0  0  0
    2.0860    9.8710   -1.6550 H   0  0  0  0  0  0  0  0  0  0  0  0
    4.2160   10.9300   -0.6840 H   0  0  0  0  0  0  0  0  0  0  0  0
    5.6010    8.3140   -0.0400 H   0  0  0  0  0  0  0  0  0  0  0  0
    6.4250   11.2080    0.7020 H   0  0  0  0  0  0  0  0  0  0  0  0
    5.8370    9.9940    1.8640 H   0  0  0  0  0  0  0  0  0  0  0  0
    7.7530    8.4920    1.2560 H   0  0  0  0  0  0  0  0  0  0  0  0
    8.3480   10.0630    1.8440 H   0  0  0  0  0  0  0  0  0  0  0  0
    8.3560    9.8210   -2.3110 H   0  0  0  0  0  0  0  0  0  0  0  0
    4.1050    8.4320    1.8440 H   0  0  0  0  0  0  0  0  0  0  0  0
    2.1220    7.0880    2.4320 H   0  0  0  0  0  0  0  0  0  0  0  0
   -1.6450    8.3360    0.3760 H   0  0  0  0  0  0  0  0  0  0  0  0
   -1.2680    8.4970    2.1080 H   0  0  0  0  0  0  0  0  0  0  0  0
   -3.5470    7.5020    1.7930 H   0  0  0  0  0  0  0  0  0  0  0  0
   -2.4520    6.3180    2.5450 H   0  0  0  0  0  0  0  0  0  0  0  0
   -6.0810    3.6760    0.8960 H   0  0  0  0  0  0  0  0  0  0  0  0
   -7.7210    4.1600    1.3910 H   0  0  0  0  0  0  0  0  0  0  0  0
   -7.7950    2.6440   -0.6240 H   0  0  0  0  0  0  0  0  0  0  0  0
   -6.7870    3.8050   -1.5190 H   0  0  0  0  0  0  0  0  0  0  0  0
  -11.5630    3.6450   -0.6490 H   0  0  0  0  0  0  0  0  0  0  0  0
  -15.6800    3.7090    1.0490 H   0  0  0  0  0  0  0  0  0  0  0  0
  -17.0410    3.5850   -0.0910 H   0  0  0  0  0  0  0  0  0  0  0  0
  1  2  1  0  0  0  0
  1 57  1  0  0  0  0
  1 58  1  0  0  0  0
  2  3  2  0  0  0  0
  2 14  1  0  0  0  0
  3  4  1  0  0  0  0
  4  5  2  0  0  0  0
  5  6  1  0  0  0  0
  5 13  1  0  0  0  0
  6  7  1  0  0  0  0
  6 11  2  0  0  0  0
  7  8  2  0  0  0  0
  7 59  1  0  0  0  0
  8  9  1  0  0  0  0
  8 60  1  0  0  0  0
  9 10  2  0  0  0  0
  9 61  1  0  0  0  0
 10 11  1  0  0  0  0
 10 62  1  0  0  0  0
 11 12  1  0  0  0  0
 12 63  1  0  0  0  0
 13 14  2  0  0  0  0
 13 64  1  0  0  0  0
 14 15  1  0  0  0  0
 15 16  1  0  0  0  0
 15 56  1  0  0  0  0
 16 17  1  0  0  0  0
 16 65  1  0  0  0  0
 16 66  1  0  0  0  0
 17 18  1  0  0  0  0
 17 56  1  0  0  0  0
 17 67  1  0  0  0  0
 18 19  1  0  0  0  0
 19 20  1  0  0  0  0
 19 55  2  0  0  0  0
 20 21  2  0  0  0  0
 20 68  1  0  0  0  0
 21 22  1  0  0  0  0
 21 69  1  0  0  0  0
 22 23  2  0  0  0  0
 22 70  1  0  0  0  0
 23 24  1  0  0  0  0
 23 55  1  0  0  0  0
 24 25  1  0  0  0  0
 24 71  1  0  0  0  0
 24 72  1  0  0  0  0
 25 26  1  0  0  0  0
 25 54  1  0  0  0  0
 26 27  1  0  0  0  0
 26 73  1  0  0  0  0
 26 74  1  0  0  0  0
 27 28  1  0  0  0  0
 27 75  1  0  0  0  0
 27 76  1  0  0  0  0
 28 29  1  0  0  0  0
 28 53  1  0  0  0  0
 29 30  2  0  0  0  0
 29 31  1  0  0  0  0
 31 32  1  0  0  0  0
 31 77  1  0  0  0  0
 31 78  1  0  0  0  0
 32 33  1  0  0  0  0
 32 52  1  0  0  0  0
 32 79  1  0  0  0  0
 33 34  1  0  0  0  0
 33 80  1  0  0  0  0
 33 81  1  0  0  0  0
 34 35  1  0  0  0  0
 34 82  1  0  0  0  0
 34 83  1  0  0  0  0
 35 36  1  0  0  0  0
 35 51  1  0  0  0  0
 35 84  1  0  0  0  0
 36 37  1  0  0  0  0
 36 50  2  0  0  0  0
 37 38  2  0  0  0  0
 37 85  1  0  0  0  0
 38 39  1  0  0  0  0
 38 86  1  0  0  0  0
 39 40  1  0  0  0  0
 39 49  2  0  0  0  0
 40 41  1  0  0  0  0
 40 87  1  0  0  0  0
 41 42  1  0  0  0  0
 41 47  1  0  0  0  0
 41 88  1  0  0  0  0
 42 43  1  0  0  0  0
 42 89  1  0  0  0  0
 42 90  1  0  0  0  0
 43 44  1  0  0  0  0
 43 91  1  0  0  0  0
 43 92  1  0  0  0  0
 44 45  2  0  0  0  0
 44 46  1  0  0  0  0
 46 47  1  0  0  0  0
 46 93  1  0  0  0  0
 47 48  2  0  0  0  0
 49 50  1  0  0  0  0
 49 94  1  0  0  0  0
 50 95  1  0  0  0  0
 51 52  1  0  0  0  0
 51 96  1  0  0  0  0
 51 97  1  0  0  0  0
 52 98  1  0  0  0  0
 52 99  1  0  0  0  0
 53 54  1  0  0  0  0
 53100  1  0  0  0  0
 53101  1  0  0  0  0
 54102  1  0  0  0  0
 54103  1  0  0  0  0
 55104  1  0  0  0  0
 56105  1  0  0  0  0
 56106  1  0  0  0  0
M  CHG  1  32   1
M  END
>  <Compound ID>
3104

>  <Uniprot>
P51531

>  <Target>
SMARCA2

>  <E3 ligase>
CRBN

>  <DC50 (nM)>
3

>  <Assay (DC50/Dmax)>
Degradation of SMARCA2 HiBiT in HT1080 cells after 6 h treatment

>  <Article DOI>
10.1021/acsmedchemlett.1c00657

>  <Molecular Weight>
759.91199

>  <Exact Mass>
759.38568

>  <XLogP3>
3.0599999

>  <Heavy Atom Count>
56

>  <Ring Count>
8

>  <Hydrogen Bond Acceptor Count>
12

>  <Hydrogen Bond Donor Count>
4

>  <Rotatable Bond Count>
11

>  <Topological Polar Surface Area>
169.49001

>  <Molecular Formula>
C42H49N9O5

>  <InChI>
InChI=1S/C42H49N9O5/c43-41-37(23-36(46-47-41)34-6-1-2-7-38(34)52)51-25-33(26-51)56-32-5-3-4-28(22-32)24-49-18-20-50(21-19-49)40(54)27-48-16-14-30(15-17-48)29-8-10-31(11-9-29)44-35-12-13-39(53)45-42(35)55/h1-11,22-23,30,33,35,44,52H,12-21,24-27H2,(H2,43,47)(H,45,53,55)

>  <InChI Key>
VVNYHGLUTRJGFK-UHFFFAOYSA-N

$$$$
3105
  MOE2018           3D

113122  0  0  1  0  0  0  0  0999 V2000
  -16.0880    4.8580   -3.3350 N   0  0  0  0  0  0  0  0  0  0  0  0
  -16.9080    5.9510   -3.1620 C   0  0  0  0  0  0  0  0  0  0  0  0
  -17.7910    6.1910   -4.1340 N   0  0  0  0  0  0  0  0  0  0  0  0
  -18.6520    7.2030   -4.0070 N   0  0  0  0  0  0  0  0  0  0  0  0
  -18.6670    8.0000   -2.9110 C   0  0  0  0  0  0  0  0  0  0  0  0
  -19.6490    9.0820   -2.8350 C   0  0  0  0  0  0  0  0  0  0  0  0
  -19.2910   10.3370   -2.3150 C   0  0  0  0  0  0  0  0  0  0  0  0
  -20.2490   11.3360   -2.2100 C   0  0  0  0  0  0  0  0  0  0  0  0
  -19.8850   12.5300   -1.7010 F   0  0  0  0  0  0  0  0  0  0  0  0
  -21.5680   11.1540   -2.6070 C   0  0  0  0  0  0  0  0  0  0  0  0
  -21.9390    9.9240   -3.1380 C   0  0  0  0  0  0  0  0  0  0  0  0
  -20.9870    8.9120   -3.2550 C   0  0  0  0  0  0  0  0  0  0  0  0
  -21.4020    7.7330   -3.7990 O   0  0  0  0  0  0  0  0  0  0  0  0
  -17.7610    7.7750   -1.8740 C   0  0  0  0  0  0  0  0  0  0  0  0
  -16.8450    6.7380   -1.9920 C   0  0  0  0  0  0  0  0  0  0  0  0
  -15.8780    6.4730   -0.9710 N   0  0  0  0  0  0  0  0  0  0  0  0
  -16.1870    6.9080    0.4330 C   0  0  0  0  0  0  0  0  0  0  0  0
  -15.0380    6.4670    1.3970 C   0  0  1  0  0  0  0  0  0  0  0  0
  -14.7120    4.9730    1.2020 C   0  0  0  0  0  0  0  0  0  0  0  0
  -13.6390    4.9540    0.0960 C   0  0  0  0  0  0  0  0  0  0  0  0
  -13.4500    6.4380   -0.2710 C   0  0  1  0  0  0  0  0  0  0  0  0
  -14.4780    6.8490   -1.3800 C   0  0  0  0  0  0  0  0  0  0  0  0
  -13.8050    7.1490    0.9680 N   0  0  0  0  0  0  0  0  0  0  0  0
  -12.8810    7.5000    1.9760 C   0  0  0  0  0  0  0  0  0  0  0  0
  -13.3390    8.2650    3.0520 C   0  0  0  0  0  0  0  0  0  0  0  0
  -12.4680    8.6280    4.0700 C   0  0  0  0  0  0  0  0  0  0  0  0
  -11.1310    8.2500    4.0150 C   0  0  0  0  0  0  0  0  0  0  0  0
  -10.6560    7.5080    2.9310 C   0  0  0  0  0  0  0  0  0  0  0  0
   -9.1910    7.1510    2.8530 C   0  0  0  0  0  0  0  0  0  0  0  0
   -8.5790    8.4200    2.4350 N   0  3  0  0  0  0  0  0  0  0  0  0
   -7.1460    8.4370    2.8810 C   0  0  0  0  0  0  0  0  0  0  0  0
   -6.5050    9.7870    2.4490 C   0  0  0  0  0  0  0  0  0  0  0  0
   -6.6360    9.8290    0.9760 N   0  0  0  0  0  0  0  0  0  0  0  0
   -5.6470    9.5360    0.1000 C   0  0  0  0  0  0  0  0  0  0  0  0
   -5.9380    9.1390   -1.0220 O   0  0  0  0  0  0  0  0  0  0  0  0
   -4.1620    9.6180    0.5180 C   0  0  0  0  0  0  0  0  0  0  0  0
   -3.2500    9.9460   -0.6860 C   0  0  0  0  0  0  0  0  0  0  0  0
   -1.8150   10.1470   -0.1700 C   0  0  0  0  0  0  0  0  0  0  0  0
   -1.4330    8.8740    0.4760 N   0  0  0  0  0  0  0  0  0  0  0  0
   -0.0660    8.5580    0.4510 C   0  0  0  0  0  0  0  0  0  0  0  0
    0.6640    8.3500    1.6420 C   0  0  0  0  0  0  0  0  0  0  0  0
    2.0180    8.0320    1.5880 C   0  0  0  0  0  0  0  0  0  0  0  0
    2.6400    7.9260    0.3420 C   0  0  0  0  0  0  0  0  0  0  0  0
    3.9990    7.6260   -0.0250 C   0  0  0  0  0  0  0  0  0  0  0  0
    4.9700    7.3960    0.6810 O   0  0  0  0  0  0  0  0  0  0  0  0
    4.0900    7.6510   -1.4040 N   0  0  0  0  0  0  0  0  0  0  0  0
    5.3050    7.2940   -2.1520 C   0  0  2  0  0  0  0  0  0  0  0  0
    5.7830    8.5530   -2.9210 C   0  0  0  0  0  0  0  0  0  0  0  0
    7.0020    8.1270   -3.7720 C   0  0  0  0  0  0  0  0  0  0  0  0
    6.5430    7.0570   -4.7450 C   0  0  0  0  0  0  0  0  0  0  0  0
    6.9510    6.9680   -5.8750 O   0  0  0  0  0  0  0  0  0  0  0  0
    5.6420    6.1220   -4.3480 N   0  0  0  0  0  0  0  0  0  0  0  0
    5.0130    6.1520   -3.1410 C   0  0  0  0  0  0  0  0  0  0  0  0
    4.2810    5.2160   -2.9070 O   0  0  0  0  0  0  0  0  0  0  0  0
    2.8430    7.9610   -1.9270 C   0  0  0  0  0  0  0  0  0  0  0  0
    2.6480    8.0860   -3.1260 O   0  0  0  0  0  0  0  0  0  0  0  0
    1.9240    8.1310   -0.8250 C   0  0  0  0  0  0  0  0  0  0  0  0
    0.5680    8.4420   -0.7930 C   0  0  0  0  0  0  0  0  0  0  0  0
   -2.2280    8.5110    1.6570 C   0  0  0  0  0  0  0  0  0  0  0  0
   -3.6640    8.2950    1.1460 C   0  0  0  0  0  0  0  0  0  0  0  0
   -8.0450    9.8570    0.5060 C   0  0  0  0  0  0  0  0  0  0  0  0
   -8.6440    8.4980    0.9310 C   0  0  0  0  0  0  0  0  0  0  0  0
  -11.5330    7.1250    1.9160 C   0  0  0  0  0  0  0  0  0  0  0  0
  -16.1750    4.2880   -4.1640 H   0  0  0  0  0  0  0  0  0  0  0  0
  -15.4000    4.6270   -2.6330 H   0  0  0  0  0  0  0  0  0  0  0  0
  -18.2750   10.5240   -1.9980 H   0  0  0  0  0  0  0  0  0  0  0  0
  -22.2900   11.9510   -2.5050 H   0  0  0  0  0  0  0  0  0  0  0  0
  -22.9570    9.7540   -3.4570 H   0  0  0  0  0  0  0  0  0  0  0  0
  -20.7240    7.0560   -3.8660 H   0  0  0  0  0  0  0  0  0  0  0  0
  -17.7720    8.3980   -0.9920 H   0  0  0  0  0  0  0  0  0  0  0  0
  -16.2850    7.9930    0.4610 H   0  0  0  0  0  0  0  0  0  0  0  0
  -17.1230    6.4510    0.7540 H   0  0  0  0  0  0  0  0  0  0  0  0
  -15.3480    6.6880    2.4180 H   0  0  0  0  0  0  0  0  0  0  0  0
  -14.3230    4.5400    2.1240 H   0  0  0  0  0  0  0  0  0  0  0  0
  -15.5990    4.4230    0.8880 H   0  0  0  0  0  0  0  0  0  0  0  0
  -13.9830    4.3830   -0.7670 H   0  0  0  0  0  0  0  0  0  0  0  0
  -12.7080    4.5260    0.4680 H   0  0  0  0  0  0  0  0  0  0  0  0
  -12.4460    6.6530   -0.6370 H   0  0  0  0  0  0  0  0  0  0  0  0
  -14.2270    6.3370   -2.3090 H   0  0  0  0  0  0  0  0  0  0  0  0
  -14.4270    7.9270   -1.5340 H   0  0  0  0  0  0  0  0  0  0  0  0
  -14.3730    8.5740    3.0920 H   0  0  0  0  0  0  0  0  0  0  0  0
  -12.8300    9.2060    4.9080 H   0  0  0  0  0  0  0  0  0  0  0  0
  -10.4580    8.5310    4.8120 H   0  0  0  0  0  0  0  0  0  0  0  0
   -9.0150    6.3670    2.1170 H   0  0  0  0  0  0  0  0  0  0  0  0
   -8.8110    6.8310    3.8230 H   0  0  0  0  0  0  0  0  0  0  0  0
   -9.0650    9.2060    2.8430 H   0  0  0  0  0  0  0  0  0  0  0  0
   -7.0980    8.3390    3.9660 H   0  0  0  0  0  0  0  0  0  0  0  0
   -6.6080    7.6100    2.4170 H   0  0  0  0  0  0  0  0  0  0  0  0
   -5.4550    9.8210    2.7400 H   0  0  0  0  0  0  0  0  0  0  0  0
   -7.0350   10.6240    2.9030 H   0  0  0  0  0  0  0  0  0  0  0  0
   -4.1050   10.4170    1.2570 H   0  0  0  0  0  0  0  0  0  0  0  0
   -3.5970   10.8580   -1.1730 H   0  0  0  0  0  0  0  0  0  0  0  0
   -3.2720    9.1220   -1.3990 H   0  0  0  0  0  0  0  0  0  0  0  0
   -1.7830   10.9630    0.5520 H   0  0  0  0  0  0  0  0  0  0  0  0
   -1.1420   10.3680   -0.9980 H   0  0  0  0  0  0  0  0  0  0  0  0
    0.1700    8.4380    2.5980 H   0  0  0  0  0  0  0  0  0  0  0  0
    2.5790    7.8700    2.4960 H   0  0  0  0  0  0  0  0  0  0  0  0
    6.0780    6.9530   -1.4640 H   0  0  0  0  0  0  0  0  0  0  0  0
    4.9860    8.9220   -3.5670 H   0  0  0  0  0  0  0  0  0  0  0  0
    6.0720    9.3340   -2.2180 H   0  0  0  0  0  0  0  0  0  0  0  0
    7.7840    7.7280   -3.1250 H   0  0  0  0  0  0  0  0  0  0  0  0
    7.3880    8.9860   -4.3210 H   0  0  0  0  0  0  0  0  0  0  0  0
    5.4270    5.3650   -4.9810 H   0  0  0  0  0  0  0  0  0  0  0  0
    0.0150    8.5910   -1.7090 H   0  0  0  0  0  0  0  0  0  0  0  0
   -1.8430    7.5960    2.1070 H   0  0  0  0  0  0  0  0  0  0  0  0
   -2.2040    9.3150    2.3930 H   0  0  0  0  0  0  0  0  0  0  0  0
   -3.6730    7.5050    0.3950 H   0  0  0  0  0  0  0  0  0  0  0  0
   -4.3120    8.0150    1.9760 H   0  0  0  0  0  0  0  0  0  0  0  0
   -8.5880   10.6770    0.9760 H   0  0  0  0  0  0  0  0  0  0  0  0
   -8.0840    9.9690   -0.5780 H   0  0  0  0  0  0  0  0  0  0  0  0
   -8.0670    7.6840    0.4920 H   0  0  0  0  0  0  0  0  0  0  0  0
   -9.6800    8.4290    0.6000 H   0  0  0  0  0  0  0  0  0  0  0  0
  -11.1720    6.5390    1.0840 H   0  0  0  0  0  0  0  0  0  0  0  0
  1  2  1  0  0  0  0
  1 64  1  0  0  0  0
  1 65  1  0  0  0  0
  2  3  2  0  0  0  0
  2 15  1  0  0  0  0
  3  4  1  0  0  0  0
  4  5  2  0  0  0  0
  5  6  1  0  0  0  0
  5 14  1  0  0  0  0
  6  7  2  0  0  0  0
  6 12  1  0  0  0  0
  7  8  1  0  0  0  0
  7 66  1  0  0  0  0
  8  9  1  0  0  0  0
  8 10  2  0  0  0  0
 10 11  1  0  0  0  0
 10 67  1  0  0  0  0
 11 12  2  0  0  0  0
 11 68  1  0  0  0  0
 12 13  1  0  0  0  0
 13 69  1  0  0  0  0
 14 15  2  0  0  0  0
 14 70  1  0  0  0  0
 15 16  1  0  0  0  0
 16 17  1  0  0  0  0
 16 22  1  0  0  0  0
 17 18  1  0  0  0  0
 17 71  1  0  0  0  0
 17 72  1  0  0  0  0
 18 19  1  0  0  0  0
 18 23  1  0  0  0  0
 18 73  1  0  0  0  0
 19 20  1  0  0  0  0
 19 74  1  0  0  0  0
 19 75  1  0  0  0  0
 20 21  1  0  0  0  0
 20 76  1  0  0  0  0
 20 77  1  0  0  0  0
 21 22  1  0  0  0  0
 21 23  1  0  0  0  0
 21 78  1  0  0  0  0
 22 79  1  0  0  0  0
 22 80  1  0  0  0  0
 23 24  1  0  0  0  0
 24 25  1  0  0  0  0
 24 63  2  0  0  0  0
 25 26  2  0  0  0  0
 25 81  1  0  0  0  0
 26 27  1  0  0  0  0
 26 82  1  0  0  0  0
 27 28  2  0  0  0  0
 27 83  1  0  0  0  0
 28 29  1  0  0  0  0
 28 63  1  0  0  0  0
 29 30  1  0  0  0  0
 29 84  1  0  0  0  0
 29 85  1  0  0  0  0
 30 31  1  0  0  0  0
 30 62  1  0  0  0  0
 30 86  1  0  0  0  0
 31 32  1  0  0  0  0
 31 87  1  0  0  0  0
 31 88  1  0  0  0  0
 32 33  1  0  0  0  0
 32 89  1  0  0  0  0
 32 90  1  0  0  0  0
 33 34  1  0  0  0  0
 33 61  1  0  0  0  0
 34 35  2  0  0  0  0
 34 36  1  0  0  0  0
 36 37  1  0  0  0  0
 36 60  1  0  0  0  0
 36 91  1  0  0  0  0
 37 38  1  0  0  0  0
 37 92  1  0  0  0  0
 37 93  1  0  0  0  0
 38 39  1  0  0  0  0
 38 94  1  0  0  0  0
 38 95  1  0  0  0  0
 39 40  1  0  0  0  0
 39 59  1  0  0  0  0
 40 41  1  0  0  0  0
 40 58  2  0  0  0  0
 41 42  2  0  0  0  0
 41 96  1  0  0  0  0
 42 43  1  0  0  0  0
 42 97  1  0  0  0  0
 43 44  1  0  0  0  0
 43 57  2  0  0  0  0
 44 45  2  0  0  0  0
 44 46  1  0  0  0  0
 46 47  1  0  0  0  0
 46 55  1  0  0  0  0
 47 48  1  0  0  0  0
 47 53  1  0  0  0  0
 47 98  1  0  0  0  0
 48 49  1  0  0  0  0
 48 99  1  0  0  0  0
 48100  1  0  0  0  0
 49 50  1  0  0  0  0
 49101  1  0  0  0  0
 49102  1  0  0  0  0
 50 51  2  0  0  0  0
 50 52  1  0  0  0  0
 52 53  1  0  0  0  0
 52103  1  0  0  0  0
 53 54  2  0  0  0  0
 55 56  2  0  0  0  0
 55 57  1  0  0  0  0
 57 58  1  0  0  0  0
 58104  1  0  0  0  0
 59 60  1  0  0  0  0
 59105  1  0  0  0  0
 59106  1  0  0  0  0
 60107  1  0  0  0  0
 60108  1  0  0  0  0
 61 62  1  0  0  0  0
 61109  1  0  0  0  0
 61110  1  0  0  0  0
 62111  1  0  0  0  0
 62112  1  0  0  0  0
 63113  1  0  0  0  0
M  CHG  1  30   1
M  END
>  <Compound ID>
3105

>  <Uniprot>
P51531

>  <Target>
SMARCA2

>  <E3 ligase>
CRBN

>  <DC50 (nM)>
3

>  <Assay (DC50/Dmax)>
Degradation of SMARCA2 HiBiT in HT1080 cells after 6 h treatment

>  <Article DOI>
10.1021/acsmedchemlett.1c00657

>  <Molecular Weight>
856.96002

>  <Exact Mass>
856.38208

>  <XLogP3>
2.8299999

>  <Heavy Atom Count>
63

>  <Ring Count>
10

>  <Hydrogen Bond Acceptor Count>
13

>  <Hydrogen Bond Donor Count>
3

>  <Rotatable Bond Count>
8

>  <Topological Polar Surface Area>
188.85001

>  <Molecular Formula>
C46H49FN10O6

>  <InChI>
InChI=1S/C46H49FN10O6/c47-29-4-10-40(58)36(21-29)37-23-39(42(48)51-50-37)55-25-32-5-6-33(26-55)56(32)31-3-1-2-27(20-31)24-52-16-18-54(19-17-52)44(61)28-12-14-53(15-13-28)30-7-8-34-35(22-30)46(63)57(45(34)62)38-9-11-41(59)49-43(38)60/h1-4,7-8,10,20-23,28,32-33,38,58H,5-6,9,11-19,24-26H2,(H2,48,51)(H,49,59,60)

>  <InChI Key>
JDTSERWCVQGCFT-UHFFFAOYSA-N

$$$$
3106
  MOE2018           3D

104111  0  0  1  0  0  0  0  0999 V2000
  -10.4190   -6.3500    1.3070 N   0  0  0  0  0  0  0  0  0  0  0  0
  -11.1180   -5.5500    0.4300 C   0  0  0  0  0  0  0  0  0  0  0  0
  -12.1740   -6.1170   -0.1560 N   0  0  0  0  0  0  0  0  0  0  0  0
  -12.9470   -5.3950   -0.9690 N   0  0  0  0  0  0  0  0  0  0  0  0
  -12.6980   -4.0860   -1.2190 C   0  0  0  0  0  0  0  0  0  0  0  0
  -13.5950   -3.3500   -2.1090 C   0  0  0  0  0  0  0  0  0  0  0  0
  -13.0790   -2.4410   -3.0480 C   0  0  0  0  0  0  0  0  0  0  0  0
  -13.9250   -1.7020   -3.8700 C   0  0  0  0  0  0  0  0  0  0  0  0
  -15.3070   -1.8560   -3.7780 C   0  0  0  0  0  0  0  0  0  0  0  0
  -15.8430   -2.7590   -2.8670 C   0  0  0  0  0  0  0  0  0  0  0  0
  -14.9940   -3.4990   -2.0530 C   0  0  0  0  0  0  0  0  0  0  0  0
  -15.5720   -4.3840   -1.1910 O   0  0  0  0  0  0  0  0  0  0  0  0
  -11.6030   -3.4590   -0.6220 C   0  0  0  0  0  0  0  0  0  0  0  0
  -10.7730   -4.1960    0.2130 C   0  0  0  0  0  0  0  0  0  0  0  0
   -9.6250   -3.5890    0.8310 N   0  0  0  0  0  0  0  0  0  0  0  0
   -9.6410   -2.1250    1.0630 C   0  0  0  0  0  0  0  0  0  0  0  0
   -8.3530   -1.8190    1.8360 C   0  0  0  0  0  0  0  0  0  0  0  0
   -7.1400   -2.0200    0.8710 C   0  0  0  0  0  0  0  0  0  0  0  0
   -5.8920   -2.1730    1.7760 C   0  0  0  0  0  0  0  0  0  0  0  0
   -5.5880   -1.3090    2.5980 O   0  0  0  0  0  0  0  0  0  0  0  0
   -5.1180   -3.2700    1.7110 N   0  0  0  0  0  0  0  0  0  0  0  0
   -5.3540   -4.2680    2.7640 C   0  0  0  0  0  0  0  0  0  0  0  0
   -4.8230   -5.6000    2.2090 C   0  0  0  0  0  0  0  0  0  0  0  0
   -3.3070   -5.4360    1.9530 C   0  0  0  0  0  0  0  0  0  0  0  0
   -2.6450   -6.7580    1.5040 C   0  0  0  0  0  0  0  0  0  0  0  0
   -3.3400   -7.6040    0.9480 O   0  0  0  0  0  0  0  0  0  0  0  0
   -1.3240   -6.9650    1.6930 N   0  0  0  0  0  0  0  0  0  0  0  0
   -0.7020   -8.2720    1.3350 C   0  0  0  0  0  0  0  0  0  0  0  0
    0.3490   -7.9960    0.2360 C   0  0  0  0  0  0  0  0  0  0  0  0
    1.3410   -7.0410    0.8000 N   0  0  0  0  0  0  0  0  0  0  0  0
    2.6080   -6.9520    0.1870 C   0  0  0  0  0  0  0  0  0  0  0  0
    3.6650   -6.4170    0.9270 C   0  0  0  0  0  0  0  0  0  0  0  0
    4.9320   -6.3210    0.3630 C   0  0  0  0  0  0  0  0  0  0  0  0
    5.1650   -6.7610   -0.9440 C   0  0  0  0  0  0  0  0  0  0  0  0
    6.5440   -6.6510   -1.5890 C   0  0  1  0  0  0  0  0  0  0  0  0
    6.7510   -5.1510   -1.9240 C   0  0  0  0  0  0  0  0  0  0  0  0
    8.1910   -4.9940   -2.4630 C   0  0  0  0  0  0  0  0  0  0  0  0
    9.1420   -5.4220   -1.3630 C   0  0  0  0  0  0  0  0  0  0  0  0
   10.1880   -4.8710   -1.1370 O   0  0  0  0  0  0  0  0  0  0  0  0
    8.8330   -6.4850   -0.5800 N   0  0  0  0  0  0  0  0  0  0  0  0
    7.6390   -7.1340   -0.6300 C   0  0  0  0  0  0  0  0  0  0  0  0
    7.5510   -8.1030    0.0860 O   0  0  0  0  0  0  0  0  0  0  0  0
    4.1020   -7.2930   -1.6780 C   0  0  0  0  0  0  0  0  0  0  0  0
    2.8320   -7.3920   -1.1220 C   0  0  0  0  0  0  0  0  0  0  0  0
    0.7240   -5.7360    1.1430 C   0  0  0  0  0  0  0  0  0  0  0  0
   -0.3370   -5.9930    2.2430 C   0  0  0  0  0  0  0  0  0  0  0  0
   -3.1070   -4.3210    0.9030 C   0  0  0  0  0  0  0  0  0  0  0  0
   -3.6870   -3.0150    1.4760 C   0  0  0  0  0  0  0  0  0  0  0  0
   -6.8850   -0.8070   -0.0600 C   0  0  0  0  0  0  0  0  0  0  0  0
   -5.7990   -0.8750   -0.9410 C   0  0  0  0  0  0  0  0  0  0  0  0
   -5.5110    0.1720   -1.8110 C   0  0  0  0  0  0  0  0  0  0  0  0
   -6.3050    1.3110   -1.8140 C   0  0  0  0  0  0  0  0  0  0  0  0
   -7.3860    1.3990   -0.9470 C   0  0  0  0  0  0  0  0  0  0  0  0
   -7.6760    0.3510   -0.0780 C   0  0  0  0  0  0  0  0  0  0  0  0
   -7.3960   -3.2430   -0.0860 C   0  0  0  0  0  0  0  0  0  0  0  0
   -8.3270   -4.2730    0.5740 C   0  0  0  0  0  0  0  0  0  0  0  0
  -10.7170   -7.3010    1.4710 H   0  0  0  0  0  0  0  0  0  0  0  0
   -9.6080   -5.9860    1.7860 H   0  0  0  0  0  0  0  0  0  0  0  0
  -12.0100   -2.3140   -3.1330 H   0  0  0  0  0  0  0  0  0  0  0  0
  -13.5080   -1.0060   -4.5830 H   0  0  0  0  0  0  0  0  0  0  0  0
  -15.9600   -1.2750   -4.4130 H   0  0  0  0  0  0  0  0  0  0  0  0
  -16.9130   -2.8850   -2.7920 H   0  0  0  0  0  0  0  0  0  0  0  0
  -14.9570   -4.8790   -0.6450 H   0  0  0  0  0  0  0  0  0  0  0  0
  -11.4040   -2.4140   -0.8070 H   0  0  0  0  0  0  0  0  0  0  0  0
   -9.6520   -1.5890    0.1140 H   0  0  0  0  0  0  0  0  0  0  0  0
  -10.5140   -1.8420    1.6510 H   0  0  0  0  0  0  0  0  0  0  0  0
   -8.3730   -0.7890    2.1930 H   0  0  0  0  0  0  0  0  0  0  0  0
   -8.2640   -2.4960    2.6860 H   0  0  0  0  0  0  0  0  0  0  0  0
   -4.8170   -3.9950    3.6720 H   0  0  0  0  0  0  0  0  0  0  0  0
   -6.4190   -4.3450    2.9810 H   0  0  0  0  0  0  0  0  0  0  0  0
   -4.9920   -6.3970    2.9330 H   0  0  0  0  0  0  0  0  0  0  0  0
   -5.3320   -5.8420    1.2760 H   0  0  0  0  0  0  0  0  0  0  0  0
   -2.8170   -5.1580    2.8860 H   0  0  0  0  0  0  0  0  0  0  0  0
   -0.2210   -8.7080    2.2100 H   0  0  0  0  0  0  0  0  0  0  0  0
   -1.4630   -8.9570    0.9600 H   0  0  0  0  0  0  0  0  0  0  0  0
   -0.1330   -7.5600   -0.6390 H   0  0  0  0  0  0  0  0  0  0  0  0
    0.8450   -8.9240   -0.0470 H   0  0  0  0  0  0  0  0  0  0  0  0
    3.4980   -6.0780    1.9390 H   0  0  0  0  0  0  0  0  0  0  0  0
    5.7440   -5.9030    0.9390 H   0  0  0  0  0  0  0  0  0  0  0  0
    6.6040   -7.2740   -2.4820 H   0  0  0  0  0  0  0  0  0  0  0  0
    6.0330   -4.8360   -2.6810 H   0  0  0  0  0  0  0  0  0  0  0  0
    6.6210   -4.5470   -1.0260 H   0  0  0  0  0  0  0  0  0  0  0  0
    8.3760   -3.9540   -2.7300 H   0  0  0  0  0  0  0  0  0  0  0  0
    8.3300   -5.6250   -3.3410 H   0  0  0  0  0  0  0  0  0  0  0  0
    9.5270   -6.8130    0.0760 H   0  0  0  0  0  0  0  0  0  0  0  0
    4.2690   -7.6310   -2.6900 H   0  0  0  0  0  0  0  0  0  0  0  0
    2.0200   -7.8080   -1.6990 H   0  0  0  0  0  0  0  0  0  0  0  0
    1.4860   -5.0510    1.5150 H   0  0  0  0  0  0  0  0  0  0  0  0
    0.2480   -5.3070    0.2610 H   0  0  0  0  0  0  0  0  0  0  0  0
   -0.8380   -5.0600    2.5030 H   0  0  0  0  0  0  0  0  0  0  0  0
    0.1400   -6.4090    3.1310 H   0  0  0  0  0  0  0  0  0  0  0  0
   -3.6270   -4.5830   -0.0180 H   0  0  0  0  0  0  0  0  0  0  0  0
   -2.0440   -4.1940    0.6970 H   0  0  0  0  0  0  0  0  0  0  0  0
   -3.5600   -2.2000    0.7630 H   0  0  0  0  0  0  0  0  0  0  0  0
   -3.1900   -2.7590    2.4120 H   0  0  0  0  0  0  0  0  0  0  0  0
   -5.1740   -1.7560   -0.9450 H   0  0  0  0  0  0  0  0  0  0  0  0
   -4.6700    0.0990   -2.4840 H   0  0  0  0  0  0  0  0  0  0  0  0
   -6.0830    2.1250   -2.4880 H   0  0  0  0  0  0  0  0  0  0  0  0
   -8.0040    2.2840   -0.9470 H   0  0  0  0  0  0  0  0  0  0  0  0
   -8.5200    0.4310    0.5910 H   0  0  0  0  0  0  0  0  0  0  0  0
   -6.4440   -3.7200   -0.3170 H   0  0  0  0  0  0  0  0  0  0  0  0
   -7.8560   -2.8850   -1.0070 H   0  0  0  0  0  0  0  0  0  0  0  0
   -7.8950   -4.6200    1.5130 H   0  0  0  0  0  0  0  0  0  0  0  0
   -8.4770   -5.1220   -0.0930 H   0  0  0  0  0  0  0  0  0  0  0  0
  1  2  1  0  0  0  0
  1 57  1  0  0  0  0
  1 58  1  0  0  0  0
  2  3  2  0  0  0  0
  2 14  1  0  0  0  0
  3  4  1  0  0  0  0
  4  5  2  0  0  0  0
  5  6  1  0  0  0  0
  5 13  1  0  0  0  0
  6  7  1  0  0  0  0
  6 11  2  0  0  0  0
  7  8  2  0  0  0  0
  7 59  1  0  0  0  0
  8  9  1  0  0  0  0
  8 60  1  0  0  0  0
  9 10  2  0  0  0  0
  9 61  1  0  0  0  0
 10 11  1  0  0  0  0
 10 62  1  0  0  0  0
 11 12  1  0  0  0  0
 12 63  1  0  0  0  0
 13 14  2  0  0  0  0
 13 64  1  0  0  0  0
 14 15  1  0  0  0  0
 15 16  1  0  0  0  0
 15 56  1  0  0  0  0
 16 17  1  0  0  0  0
 16 65  1  0  0  0  0
 16 66  1  0  0  0  0
 17 18  1  0  0  0  0
 17 67  1  0  0  0  0
 17 68  1  0  0  0  0
 18 19  1  0  0  0  0
 18 49  1  0  0  0  0
 18 55  1  0  0  0  0
 19 20  2  0  0  0  0
 19 21  1  0  0  0  0
 21 22  1  0  0  0  0
 21 48  1  0  0  0  0
 22 23  1  0  0  0  0
 22 69  1  0  0  0  0
 22 70  1  0  0  0  0
 23 24  1  0  0  0  0
 23 71  1  0  0  0  0
 23 72  1  0  0  0  0
 24 25  1  0  0  0  0
 24 47  1  0  0  0  0
 24 73  1  0  0  0  0
 25 26  2  0  0  0  0
 25 27  1  0  0  0  0
 27 28  1  0  0  0  0
 27 46  1  0  0  0  0
 28 29  1  0  0  0  0
 28 74  1  0  0  0  0
 28 75  1  0  0  0  0
 29 30  1  0  0  0  0
 29 76  1  0  0  0  0
 29 77  1  0  0  0  0
 30 31  1  0  0  0  0
 30 45  1  0  0  0  0
 31 32  1  0  0  0  0
 31 44  2  0  0  0  0
 32 33  2  0  0  0  0
 32 78  1  0  0  0  0
 33 34  1  0  0  0  0
 33 79  1  0  0  0  0
 34 35  1  0  0  0  0
 34 43  2  0  0  0  0
 35 36  1  0  0  0  0
 35 41  1  0  0  0  0
 35 80  1  0  0  0  0
 36 37  1  0  0  0  0
 36 81  1  0  0  0  0
 36 82  1  0  0  0  0
 37 38  1  0  0  0  0
 37 83  1  0  0  0  0
 37 84  1  0  0  0  0
 38 39  2  0  0  0  0
 38 40  1  0  0  0  0
 40 41  1  0  0  0  0
 40 85  1  0  0  0  0
 41 42  2  0  0  0  0
 43 44  1  0  0  0  0
 43 86  1  0  0  0  0
 44 87  1  0  0  0  0
 45 46  1  0  0  0  0
 45 88  1  0  0  0  0
 45 89  1  0  0  0  0
 46 90  1  0  0  0  0
 46 91  1  0  0  0  0
 47 48  1  0  0  0  0
 47 92  1  0  0  0  0
 47 93  1  0  0  0  0
 48 94  1  0  0  0  0
 48 95  1  0  0  0  0
 49 50  1  0  0  0  0
 49 54  2  0  0  0  0
 50 51  2  0  0  0  0
 50 96  1  0  0  0  0
 51 52  1  0  0  0  0
 51 97  1  0  0  0  0
 52 53  2  0  0  0  0
 52 98  1  0  0  0  0
 53 54  1  0  0  0  0
 53 99  1  0  0  0  0
 54100  1  0  0  0  0
 55 56  1  0  0  0  0
 55101  1  0  0  0  0
 55102  1  0  0  0  0
 56103  1  0  0  0  0
 56104  1  0  0  0  0
M  END
>  <Compound ID>
3106

>  <Uniprot>
P51531

>  <Target>
SMARCA2

>  <E3 ligase>
CRBN

>  <DC50 (nM)>
3

>  <Assay (DC50/Dmax)>
Degradation of SMARCA2 HiBiT in HT1080 cells after 6 h treatment

>  <Article DOI>
10.1021/acsmedchemlett.1c00657

>  <Molecular Weight>
756.90802

>  <Exact Mass>
756.37476

>  <XLogP3>
3

>  <Heavy Atom Count>
56

>  <Ring Count>
8

>  <Hydrogen Bond Acceptor Count>
10

>  <Hydrogen Bond Donor Count>
3

>  <Rotatable Bond Count>
7

>  <Topological Polar Surface Area>
165.3

>  <Molecular Formula>
C43H48N8O5

>  <InChI>
InChI=1S/C43H48N8O5/c44-39-36(28-35(46-47-39)34-8-4-5-9-37(34)52)49-22-18-43(19-23-49,31-6-2-1-3-7-31)42(56)51-20-16-30(17-21-51)41(55)50-26-24-48(25-27-50)32-12-10-29(11-13-32)33-14-15-38(53)45-40(33)54/h1-13,28,30,33,52H,14-27H2,(H2,44,47)(H,45,53,54)

>  <InChI Key>
GPZCDIKIONXKJM-UHFFFAOYSA-N

$$$$
